Program Version,EnergyPlus, Version 22.2.0-c249759bad, YMD=2023.09.01 17:11,
   ************* Beginning Zone Sizing Calculations
   ** Warning ** ProcessScheduleInput: Schedule:Constant="ALWAYS ON DISCRETE", Schedule Type Limits Name="ONOFF" not found -- will not be validated
   ** Warning ** Foundation:Kiva="KIVA FOUNDATION", no Interior Horizontal Insulation Material Name defined
   **   ~~~   ** Interior Horizontal Insulation Depth will not be used.
   ** Warning ** CheckUsedConstructions: There are 15 nominally unused constructions in input.
   **   ~~~   ** Each Unused construction is shown.
   ************* Construction=INTERIOR FLOOR
   ************* Construction=INTERIOR WINDOW
   ************* Construction=EXTERIOR DOOR
   ************* Construction=INTERIOR DOOR
   ************* Construction=GABLE CONSTRUCTION
   ************* Construction=CRAWL_FLOOR
   ************* Construction=INSULATED PIPE
   ************* Construction=PLAIN PIPE
   ************* Construction=TDD PIPE
   ************* Construction=TDD DOME
   ************* Construction=TDD DIFFUSER
   ************* Construction=CRAWL WALL
   ************* Construction=CEILING-FLOOR-LAYER
   ************* Construction=SLAB CONSTRUCTION W FULL R10 INSULATION
   ************* Construction=SLAB CONSTRUCTION W FULL R5 INSULATION
   ** Warning ** GetDXCoils: Coil:Heating:DX:SingleSpeed="DX_HEATING_COIL" curve values
   **   ~~~   ** ... Defrost Energy Input Ratio Function of Temperature Curve Name = DEFROSTEIR output is not equal to 1.0 (+ or - 10%) at rated conditions.
   **   ~~~   ** ... Curve output at rated conditions = 0.152
   ************* Beginning System Sizing Calculations
   ************* Beginning Plant Sizing Calculations
   ** Warning ** SizeDXCoil Coil:Cooling:DX:SingleSpeed DX_COOLING_COIL
   **   ~~~   ** ...Gross Rated Total Cooling Capacity [W] will be limited by the maximum rated volume flow per rated total capacity ratio.
   **   ~~~   ** ...DX coil volume flow rate ( m3/s ) = 0.522804
   **   ~~~   ** ...Requested capacity ( W ) = 7538.794
   **   ~~~   ** ...Requested flow/capacity ratio ( m3/s/W ) = 6.934E-005
   **   ~~~   ** ...Maximum flow/capacity ratio ( m3/s/W ) = 6.041E-005
   **   ~~~   ** ...Adjusted capacity ( W ) = 8654.262
   ** Warning ** SizeDXCoil Coil:Heating:DX:SingleSpeed DX_HEATING_COIL
   **   ~~~   ** ...Gross Rated Heating Capacity [W] will be limited by the maximum rated volume flow per rated total capacity ratio.
   **   ~~~   ** ...DX coil volume flow rate ( m3/s ) = 0.522804
   **   ~~~   ** ...Requested capacity ( W ) = 8654.262
   **   ~~~   ** ...Requested flow/capacity ratio ( m3/s/W ) = 6.041E-005
   **   ~~~   ** ...Maximum flow/capacity ratio ( m3/s/W ) = 6.041E-005
   **   ~~~   ** ...Adjusted capacity ( W ) = 8654.262
   ** Warning ** Coil:WaterHeating:AirToWaterHeatPump:Wrapped "HEAT PUMP WATER HEATER EVAPORATOR": Rated air volume flow rate per watt of rated total water heating capacity is out of range
   **   ~~~   ** Min Rated Vol Flow Per Watt=[4.027E-005], Rated Vol Flow Per Watt=[1.510E-004], Max Rated Vol Flow Per Watt=[8.056E-005]. See Input-Output Reference Manual for valid range.
   ************* SizeFan: : Potential issue with equipment sizing for Fan:OnOff HEAT PUMP WATER HEATER FAN
   **   ~~~   ** User-Specified Maximum Flow Rate [m3/s] = 0.22653
   **   ~~~   ** differs from Design Size Maximum Flow Rate [m3/s] = 7.55250E-002
   **   ~~~   ** This may, or may not, indicate mismatched component sizes.
   **   ~~~   ** Verify that the value entered is intended and is consistent with other components.
   ** Warning ** Water heater = WATER HEATER TANK:  Recovery Efficiency and Energy Factor could not be calculated during the test for standard ratings
   **   ~~~   ** Setpoint was never recovered and/or heater never turned on
   ** Warning ** Check input. Pump nominal power or motor efficiency is set to 0, for pump=MAINS PRESSURE
   ** Warning ** Output:Meter: invalid Key Name="ELECTRIC_RANGE:INTERIOREQUIPMENT:ELECTRICITY" - not found.
   ** Warning ** Output:Meter: invalid Key Name="ELECTRIC_DRYER:INTERIOREQUIPMENT:ELECTRICITY" - not found.
   ** Warning ** Output:Meter: invalid Key Name="HEATRECOVERY:ELECTRICITY" - not found.
   ** Warning ** Output:Meter: invalid Key Name="HEATING:NATURALGAS" - not found.
   ** Warning ** Output:Meter: invalid Key Name="WATERSYSTEMS:NATURALGAS" - not found.
   ** Warning ** Output:Meter: invalid Key Name="PROPANE:FACILITY" - not found.
   ** Warning ** Output:Meter: invalid Key Name="HEATING:PROPANE" - not found.
   ************* Testing Individual Branch Integrity
   ************* All Branches passed integrity testing
   ************* Testing Individual Supply Air Path Integrity
   ************* All Supply Air Paths passed integrity testing
   ************* Testing Individual Return Air Path Integrity
   ************* All Return Air Paths passed integrity testing
   ************* No node connection errors were found.
   ************* Beginning Simulation
   ** Warning ** AirflowNetwork::Solver::validate_distribution: Heat pump water heater is simulated along with an AirflowNetwork but is not included in the AirflowNetwork.
   ** Warning ** CalcEquipmentFlowRates: "TOTAL HOT WATER LOAD" - Target water temperature is greater than the hot water temperature by (0.35 C)
   **   ~~~   **  Environment=EXTREME_WINTER, at Simulation time=12/15 06:00 - 06:15
   **   ~~~   ** ...target water temperature     = 53.33 C
   **   ~~~   ** ...hot water temperature        = 52.98 C
   **   ~~~   ** ...Target water temperature should be less than or equal to the hot water temperature. Verify temperature setpoints and schedules.
   ** Warning ** SimHVAC: Maximum iterations (20) exceeded for all HVAC loops, at ANNUAL, 02/09 19:45 - 20:00
   **   ~~~   ** The solution for one or more of the Air Loop HVAC systems did not appear to converge
   **   ~~~   ** Air System Named = CENTRAL SYSTEM did not converge for mass flow rate
   **   ~~~   ** Check values should be zero. Most Recent values listed first.
   **   ~~~   ** Demand-to-Supply interface mass flow rate check value iteration history trace: 6.277905E-002,6.277905E-002,6.277905E-002,6.277905E-002,6.277905E-002,6.277905E-002,6.277905E-002,6.277905E-002,6.277905E-002,6.277905E-002,
   **   ~~~   ** Supply-to-demand interface deck 1 mass flow rate check value iteration history trace: 6.277905E-002,6.277905E-002,6.277905E-002,6.277905E-002,6.277905E-002,6.277905E-002,6.277905E-002,6.277905E-002,6.277905E-002,6.277905E-002,
   **   ~~~   ** Air System Named = CENTRAL SYSTEM did not converge for energy
   **   ~~~   ** Check values should be zero. Most Recent values listed first.
   **   ~~~   ** Demand-to-Supply interface energy check value iteration history trace: 1243.995253,1243.995253,1243.995253,1243.995253,1243.995253,1243.995253,1243.995253,1243.995253,1243.995253,1243.995253,
   **   ~~~   ** Supply-to-demand interface deck 1 energy check value iteration history trace: 2163.744330,2163.744329,2163.744329,2163.744329,2163.744329,2163.744329,2163.744329,2163.744329,2163.744329,2163.744329,
   ** Warning ** SimHVAC: Maximum iterations (20) exceeded for all HVAC loops, at ANNUAL, 02/18 15:45 - 16:00
   **   ~~~   ** The solution for one or more of the Air Loop HVAC systems did not appear to converge
   **   ~~~   ** Air System Named = CENTRAL SYSTEM did not converge for mass flow rate
   **   ~~~   ** Check values should be zero. Most Recent values listed first.
   **   ~~~   ** Demand-to-Supply interface mass flow rate check value iteration history trace: 5.206959E-002,5.206959E-002,5.206959E-002,5.206959E-002,5.206959E-002,5.206959E-002,5.206959E-002,5.206959E-002,5.206959E-002,5.206959E-002,
   **   ~~~   ** Supply-to-demand interface deck 1 mass flow rate check value iteration history trace: 5.206959E-002,5.206959E-002,5.206959E-002,5.206959E-002,5.206959E-002,5.206959E-002,5.206959E-002,5.206959E-002,5.206959E-002,5.206959E-002,
   **   ~~~   ** Air System Named = CENTRAL SYSTEM did not converge for energy
   **   ~~~   ** Check values should be zero. Most Recent values listed first.
   **   ~~~   ** Demand-to-Supply interface energy check value iteration history trace: 1032.863927,1032.863927,1032.863927,1032.863927,1032.863926,1032.863926,1032.863926,1032.863926,1032.863926,1032.863926,
   **   ~~~   ** Supply-to-demand interface deck 1 energy check value iteration history trace: 1820.092778,1820.092778,1820.092778,1820.092778,1820.092777,1820.092777,1820.092777,1820.092777,1820.092777,1820.092777,
   ** Warning ** SimHVAC: Maximum iterations (20) exceeded for all HVAC loops, at ANNUAL, 03/07 00:30 - 00:45
   **   ~~~   ** The solution for one or more of the Air Loop HVAC systems did not appear to converge
   **   ~~~   ** Air System Named = CENTRAL SYSTEM did not converge for mass flow rate
   **   ~~~   ** Check values should be zero. Most Recent values listed first.
   **   ~~~   ** Demand-to-Supply interface mass flow rate check value iteration history trace: 5.595923E-002,5.595923E-002,5.595923E-002,5.595923E-002,5.595923E-002,5.595923E-002,5.595923E-002,5.595923E-002,5.595923E-002,5.595923E-002,
   **   ~~~   ** Supply-to-demand interface deck 1 mass flow rate check value iteration history trace: 5.595923E-002,5.595923E-002,5.595923E-002,5.595923E-002,5.595923E-002,5.595923E-002,5.595923E-002,5.595923E-002,5.595923E-002,5.595923E-002,
   **   ~~~   ** Air System Named = CENTRAL SYSTEM did not converge for energy
   **   ~~~   ** Check values should be zero. Most Recent values listed first.
   **   ~~~   ** Demand-to-Supply interface energy check value iteration history trace: 1046.877998,1046.877998,1046.877998,1046.877998,1046.877998,1046.877997,1046.877997,1046.877997,1046.877997,1046.877997,
   **   ~~~   ** Supply-to-demand interface deck 1 energy check value iteration history trace: 1865.711957,1865.711957,1865.711957,1865.711957,1865.711957,1865.711957,1865.711957,1865.711957,1865.711957,1865.711957,
   ** Warning ** SimHVAC: Maximum iterations (20) exceeded for all HVAC loops, at ANNUAL, 03/12 09:51 - 09:54
   **   ~~~   ** The solution for one or more of the Air Loop HVAC systems did not appear to converge
   **   ~~~   ** Air System Named = CENTRAL SYSTEM did not converge for mass flow rate
   **   ~~~   ** Check values should be zero. Most Recent values listed first.
   **   ~~~   ** Demand-to-Supply interface mass flow rate check value iteration history trace: 7.219423E-002,7.219423E-002,7.219423E-002,7.219423E-002,7.219423E-002,7.219423E-002,7.219423E-002,7.219423E-002,7.219423E-002,7.219423E-002,
   **   ~~~   ** Supply-to-demand interface deck 1 mass flow rate check value iteration history trace: 7.219423E-002,7.219423E-002,7.219423E-002,7.219423E-002,7.219423E-002,7.219423E-002,7.219423E-002,7.219423E-002,7.219423E-002,7.219423E-002,
   **   ~~~   ** Air System Named = CENTRAL SYSTEM did not converge for energy
   **   ~~~   ** Check values should be zero. Most Recent values listed first.
   **   ~~~   ** Demand-to-Supply interface energy check value iteration history trace: 1429.312289,1429.312289,1429.312289,1429.312289,1429.312289,1429.312289,1429.312289,1429.312289,1429.312288,1429.312288,
   **   ~~~   ** Supply-to-demand interface deck 1 energy check value iteration history trace: 2505.091249,2505.091249,2505.091249,2505.091249,2505.091249,2505.091249,2505.091249,2505.091249,2505.091249,2505.091249,
   ** Warning ** SimHVAC: Maximum iterations (20) exceeded for all HVAC loops, at ANNUAL, 03/25 09:00 - 09:15
   **   ~~~   ** The solution for one or more of the Air Loop HVAC systems did not appear to converge
   **   ~~~   ** Air System Named = CENTRAL SYSTEM did not converge for mass flow rate
   **   ~~~   ** Check values should be zero. Most Recent values listed first.
   **   ~~~   ** Demand-to-Supply interface mass flow rate check value iteration history trace: 6.341812E-002,6.341812E-002,6.341812E-002,6.341812E-002,6.341812E-002,6.341812E-002,6.341812E-002,6.341812E-002,6.341812E-002,6.341812E-002,
   **   ~~~   ** Supply-to-demand interface deck 1 mass flow rate check value iteration history trace: 6.341812E-002,6.341812E-002,6.341812E-002,6.341812E-002,6.341812E-002,6.341812E-002,6.341812E-002,6.341812E-002,6.341812E-002,6.341812E-002,
   **   ~~~   ** Air System Named = CENTRAL SYSTEM did not converge for energy
   **   ~~~   ** Check values should be zero. Most Recent values listed first.
   **   ~~~   ** Demand-to-Supply interface energy check value iteration history trace: 1256.728392,1256.728392,1256.728392,1256.728392,1256.728392,1256.728392,1256.728392,1256.728392,1256.728392,1256.728392,
   **   ~~~   ** Supply-to-demand interface deck 1 energy check value iteration history trace: 2371.602766,2371.602765,2371.602765,2371.602765,2371.602765,2371.602765,2371.602765,2371.602765,2371.602765,2371.602765,
   ** Warning ** SimHVAC: Maximum iterations (20) exceeded for all HVAC loops, at ANNUAL, 03/27 20:15 - 20:22
   **   ~~~   ** The solution for one or more of the Air Loop HVAC systems did not appear to converge
   **   ~~~   ** Air System Named = CENTRAL SYSTEM did not converge for mass flow rate
   **   ~~~   ** Check values should be zero. Most Recent values listed first.
   **   ~~~   ** Demand-to-Supply interface mass flow rate check value iteration history trace: 8.574056E-002,8.574056E-002,8.574056E-002,8.574056E-002,8.574056E-002,8.574056E-002,8.574056E-002,8.574056E-002,8.574056E-002,8.574056E-002,
   **   ~~~   ** Supply-to-demand interface deck 1 mass flow rate check value iteration history trace: 8.574056E-002,8.574056E-002,8.574056E-002,8.574056E-002,8.574056E-002,8.574056E-002,8.574056E-002,8.574056E-002,8.574056E-002,8.574056E-002,
   **   ~~~   ** Air System Named = CENTRAL SYSTEM did not converge for energy
   **   ~~~   ** Check values should be zero. Most Recent values listed first.
   **   ~~~   ** Demand-to-Supply interface energy check value iteration history trace: 1699.123022,1699.123022,1699.123022,1699.123022,1699.123022,1699.123022,1699.123022,1699.123022,1699.123022,1699.123021,
   **   ~~~   ** Supply-to-demand interface deck 1 energy check value iteration history trace: 2622.053973,2622.053973,2622.053973,2622.053972,2622.053972,2622.053972,2622.053972,2622.053972,2622.053972,2622.053971,
   ** Warning ** SimHVAC: Maximum iterations (20) exceeded for all HVAC loops, at ANNUAL, 04/07 04:10 - 04:15
   **   ~~~   ** The solution for one or more of the Air Loop HVAC systems did not appear to converge
   **   ~~~   ** Air System Named = CENTRAL SYSTEM did not converge for mass flow rate
   **   ~~~   ** Check values should be zero. Most Recent values listed first.
   **   ~~~   ** Demand-to-Supply interface mass flow rate check value iteration history trace: 7.113769E-002,7.113769E-002,7.113769E-002,7.113769E-002,7.113769E-002,7.113769E-002,7.113769E-002,7.113769E-002,7.113769E-002,7.113769E-002,
   **   ~~~   ** Supply-to-demand interface deck 1 mass flow rate check value iteration history trace: 7.113769E-002,7.113769E-002,7.113769E-002,7.113769E-002,7.113769E-002,7.113769E-002,7.113769E-002,7.113769E-002,7.113769E-002,7.113769E-002,
   **   ~~~   ** Air System Named = CENTRAL SYSTEM did not converge for energy
   **   ~~~   ** Check values should be zero. Most Recent values listed first.
   **   ~~~   ** Demand-to-Supply interface energy check value iteration history trace: 1330.410643,1330.410643,1330.410643,1330.410643,1330.410643,1330.410643,1330.410643,1330.410643,1330.410643,1330.410643,
   **   ~~~   ** Supply-to-demand interface deck 1 energy check value iteration history trace: 2127.443159,2127.443159,2127.443159,2127.443159,2127.443159,2127.443159,2127.443159,2127.443159,2127.443158,2127.443158,
   ** Warning ** SimHVAC: Maximum iterations (20) exceeded for all HVAC loops, at ANNUAL, 04/20 05:30 - 05:38
   **   ~~~   ** The solution for one or more of the Air Loop HVAC systems did not appear to converge
   **   ~~~   ** Air System Named = CENTRAL SYSTEM did not converge for mass flow rate
   **   ~~~   ** Check values should be zero. Most Recent values listed first.
   **   ~~~   ** Demand-to-Supply interface mass flow rate check value iteration history trace: 5.494504E-002,5.494504E-002,5.494504E-002,5.494504E-002,5.494504E-002,5.494504E-002,5.494504E-002,5.494504E-002,5.494504E-002,5.494504E-002,
   **   ~~~   ** Supply-to-demand interface deck 1 mass flow rate check value iteration history trace: 5.494504E-002,5.494504E-002,5.494504E-002,5.494504E-002,5.494504E-002,5.494504E-002,5.494504E-002,5.494504E-002,5.494504E-002,5.494504E-002,
   **   ~~~   ** Air System Named = CENTRAL SYSTEM did not converge for energy
   **   ~~~   ** Check values should be zero. Most Recent values listed first.
   **   ~~~   ** Demand-to-Supply interface energy check value iteration history trace: 1089.474289,1089.474289,1089.474289,1089.474289,1089.474289,1089.474289,1089.474289,1089.474289,1089.474289,1089.474289,
   **   ~~~   ** Supply-to-demand interface deck 1 energy check value iteration history trace: 1894.189189,1894.189189,1894.189189,1894.189189,1894.189188,1894.189188,1894.189188,1894.189188,1894.189188,1894.189188,
   ** Warning ** SimHVAC: Maximum iterations (20) exceeded for all HVAC loops, at ANNUAL, 05/02 09:48 - 09:51
   **   ~~~   ** The solution for one or more of the Air Loop HVAC systems did not appear to converge
   **   ~~~   ** Air System Named = CENTRAL SYSTEM did not converge for mass flow rate
   **   ~~~   ** Check values should be zero. Most Recent values listed first.
   **   ~~~   ** Demand-to-Supply interface mass flow rate check value iteration history trace: 5.240903E-002,5.240903E-002,5.240903E-002,5.240903E-002,5.240903E-002,5.240903E-002,5.240903E-002,5.240903E-002,5.240903E-002,5.240903E-002,
   **   ~~~   ** Supply-to-demand interface deck 1 mass flow rate check value iteration history trace: 5.240903E-002,5.240903E-002,5.240903E-002,5.240903E-002,5.240903E-002,5.240903E-002,5.240903E-002,5.240903E-002,5.240903E-002,5.240903E-002,
   **   ~~~   ** Air System Named = CENTRAL SYSTEM did not converge for energy
   **   ~~~   ** Check values should be zero. Most Recent values listed first.
   **   ~~~   ** Demand-to-Supply interface energy check value iteration history trace: 1034.074702,1034.074702,1034.074702,1034.074702,1034.074702,1034.074702,1034.074702,1034.074702,1034.074702,1034.074702,
   **   ~~~   ** Supply-to-demand interface deck 1 energy check value iteration history trace: 1869.595651,1869.595651,1869.595651,1869.595651,1869.595651,1869.595651,1869.595650,1869.595650,1869.595650,1869.595650,
   ** Warning ** SimHVAC: Maximum iterations (20) exceeded for all HVAC loops, at ANNUAL, 05/11 08:05 - 08:10
   **   ~~~   ** The solution for one or more of the Air Loop HVAC systems did not appear to converge
   **   ~~~   ** Air System Named = CENTRAL SYSTEM did not converge for mass flow rate
   **   ~~~   ** Check values should be zero. Most Recent values listed first.
   **   ~~~   ** Demand-to-Supply interface mass flow rate check value iteration history trace: 5.391571E-002,5.391571E-002,5.391571E-002,5.391571E-002,5.391571E-002,5.391571E-002,5.391571E-002,5.391571E-002,5.391571E-002,5.391571E-002,
   **   ~~~   ** Supply-to-demand interface deck 1 mass flow rate check value iteration history trace: 5.391571E-002,5.391571E-002,5.391571E-002,5.391571E-002,5.391571E-002,5.391571E-002,5.391571E-002,5.391571E-002,5.391571E-002,5.391571E-002,
   **   ~~~   ** Air System Named = CENTRAL SYSTEM did not converge for energy
   **   ~~~   ** Check values should be zero. Most Recent values listed first.
   **   ~~~   ** Demand-to-Supply interface energy check value iteration history trace: 1061.768221,1061.768221,1061.768220,1061.768220,1061.768220,1061.768220,1061.768220,1061.768220,1061.768220,1061.768220,
   **   ~~~   ** Supply-to-demand interface deck 1 energy check value iteration history trace: 2007.376905,2007.376905,2007.376905,2007.376905,2007.376905,2007.376905,2007.376905,2007.376905,2007.376905,2007.376905,
   ** Warning ** SimHVAC: Maximum iterations (20) exceeded for all HVAC loops, at ANNUAL, 05/18 06:00 - 06:15
   **   ~~~   ** The solution for one or more of the Air Loop HVAC systems did not appear to converge
   **   ~~~   ** Air System Named = CENTRAL SYSTEM did not converge for mass flow rate
   **   ~~~   ** Check values should be zero. Most Recent values listed first.
   **   ~~~   ** Demand-to-Supply interface mass flow rate check value iteration history trace: 6.793908E-002,6.793908E-002,6.793908E-002,6.793908E-002,6.793908E-002,6.793908E-002,6.793908E-002,6.793908E-002,6.793908E-002,6.793908E-002,
   **   ~~~   ** Supply-to-demand interface deck 1 mass flow rate check value iteration history trace: 6.793908E-002,6.793908E-002,6.793908E-002,6.793908E-002,6.793908E-002,6.793908E-002,6.793908E-002,6.793908E-002,6.793908E-002,6.793908E-002,
   **   ~~~   ** Air System Named = CENTRAL SYSTEM did not converge for energy
   **   ~~~   ** Check values should be zero. Most Recent values listed first.
   **   ~~~   ** Demand-to-Supply interface energy check value iteration history trace: 1593.141850,1593.141850,1593.141850,1593.141851,1593.141851,1593.141851,1593.141852,1593.141852,1593.141852,1593.141853,
   **   ~~~   ** Supply-to-demand interface deck 1 energy check value iteration history trace: 700.077928,700.077928,700.077928,700.077929,700.077929,700.077929,700.077929,700.077929,700.077929,700.077930,
   ** Warning ** SimHVAC: Maximum iterations (20) exceeded for all HVAC loops, at ANNUAL, 05/22 20:45 - 21:00
   **   ~~~   ** The solution for one or more of the Air Loop HVAC systems did not appear to converge
   **   ~~~   ** Air System Named = CENTRAL SYSTEM did not converge for mass flow rate
   **   ~~~   ** Check values should be zero. Most Recent values listed first.
   **   ~~~   ** Demand-to-Supply interface mass flow rate check value iteration history trace: 2.249419E-002,2.249419E-002,2.249419E-002,2.249419E-002,2.249419E-002,2.249419E-002,2.249419E-002,2.249419E-002,2.249419E-002,2.249419E-002,
   **   ~~~   ** Supply-to-demand interface deck 1 mass flow rate check value iteration history trace: 2.249419E-002,2.249419E-002,2.249419E-002,2.249419E-002,2.249419E-002,2.249419E-002,2.249419E-002,2.249419E-002,2.249419E-002,2.249419E-002,
   **   ~~~   ** Air System Named = CENTRAL SYSTEM did not converge for energy
   **   ~~~   ** Check values should be zero. Most Recent values listed first.
   **   ~~~   ** Demand-to-Supply interface energy check value iteration history trace: 523.434522,523.434522,523.434522,523.434522,523.434522,523.434522,523.434522,523.434522,523.434522,523.434522,
   **   ~~~   ** Supply-to-demand interface deck 1 energy check value iteration history trace: 177.321906,177.321906,177.321906,177.321906,177.321906,177.321906,177.321906,177.321906,177.321906,177.321906,
   ** Warning ** SimHVAC: Maximum iterations (20) exceeded for all HVAC loops, at ANNUAL, 06/03 09:30 - 09:45
   **   ~~~   ** The solution for one or more of the Air Loop HVAC systems did not appear to converge
   **   ~~~   ** Air System Named = CENTRAL SYSTEM did not converge for mass flow rate
   **   ~~~   ** Check values should be zero. Most Recent values listed first.
   **   ~~~   ** Demand-to-Supply interface mass flow rate check value iteration history trace: 6.816808E-002,6.816808E-002,6.816808E-002,6.816808E-002,6.816808E-002,6.816808E-002,6.816808E-002,6.816808E-002,6.816808E-002,6.816808E-002,
   **   ~~~   ** Supply-to-demand interface deck 1 mass flow rate check value iteration history trace: 6.816808E-002,6.816808E-002,6.816808E-002,6.816808E-002,6.816808E-002,6.816808E-002,6.816808E-002,6.816808E-002,6.816808E-002,6.816808E-002,
   **   ~~~   ** Air System Named = CENTRAL SYSTEM did not converge for energy
   **   ~~~   ** Check values should be zero. Most Recent values listed first.
   **   ~~~   ** Demand-to-Supply interface energy check value iteration history trace: 1629.044603,1629.044603,1629.044604,1629.044604,1629.044604,1629.044604,1629.044604,1629.044605,1629.044605,1629.044605,
   **   ~~~   ** Supply-to-demand interface deck 1 energy check value iteration history trace: 665.047555,665.047555,665.047556,665.047556,665.047556,665.047556,665.047556,665.047556,665.047556,665.047556,
   ** Warning ** SimHVAC: Maximum iterations (20) exceeded for all HVAC loops, at ANNUAL, 10/06 07:30 - 07:38
   **   ~~~   ** The solution for one or more of the Air Loop HVAC systems did not appear to converge
   **   ~~~   ** Air System Named = CENTRAL SYSTEM did not converge for mass flow rate
   **   ~~~   ** Check values should be zero. Most Recent values listed first.
   **   ~~~   ** Demand-to-Supply interface mass flow rate check value iteration history trace: 6.174776E-002,6.174776E-002,6.174776E-002,6.174776E-002,6.174776E-002,6.174776E-002,6.174776E-002,6.174776E-002,6.174776E-002,6.174776E-002,
   **   ~~~   ** Supply-to-demand interface deck 1 mass flow rate check value iteration history trace: 6.174776E-002,6.174776E-002,6.174776E-002,6.174776E-002,6.174776E-002,6.174776E-002,6.174776E-002,6.174776E-002,6.174776E-002,6.174776E-002,
   **   ~~~   ** Air System Named = CENTRAL SYSTEM did not converge for energy
   **   ~~~   ** Check values should be zero. Most Recent values listed first.
   **   ~~~   ** Demand-to-Supply interface energy check value iteration history trace: 1225.902015,1225.902015,1225.902015,1225.902015,1225.902015,1225.902015,1225.902015,1225.902015,1225.902015,1225.902015,
   **   ~~~   ** Supply-to-demand interface deck 1 energy check value iteration history trace: 2127.981711,2127.981711,2127.981711,2127.981711,2127.981711,2127.981711,2127.981711,2127.981711,2127.981711,2127.981710,
   ************* Simulation Error Summary *************
   ** Warning ** The following Report Variables were requested but not generated -- check.rdd file
   **   ~~~   ** Either the IDF did not contain these elements, the variable name is misspelled,
   **   ~~~   ** or the requested variable is an advanced output which requires Output : Diagnostics, DisplayAdvancedReportVariables;
   ************* Key=*, VarName=BASEBOARD TOTAL HEATING ENERGY, Frequency=
   ************* Key=*, VarName=WATER HEATER NATURALGAS ENERGY, Frequency=
   ************* Key=*, VarName=COOLING COIL TOTAL HEATING ENERGY, Frequency=
   ************* There are 34 unused schedules in input.
   ************* There are 388 unused week schedules in input.
   ************* There are 396 unused day schedules in input.
   ************* Use Output:Diagnostics,DisplayUnusedSchedules; to see them.
   *************
   ************* ===== Recurring Error Summary =====
   ************* The following recurring error messages occurred.
   *************
   *************  ** Warning ** "TOTAL HOT WATER LOAD" - Target water temperature should be less than or equal to the hot water temperature error continues...
   *************  **   ~~~   **   This error occurred 136403 total times;
   *************  **   ~~~   **   during Warmup 0 times;
   *************  **   ~~~   **   during Sizing 0 times.
   *************  **   ~~~   **   Max=10.13047  Min=2.228871E-004
   *************
   *************  ** Warning ** SimHVAC: Exceeding Maximum iterations for all HVAC loops, during ANNUAL continues
   *************  **   ~~~   **   This error occurred 18 total times;
   *************  **   ~~~   **   during Warmup 0 times;
   *************  **   ~~~   **   during Sizing 0 times.
   *************
   *************
   ************* ===== Final Error Summary =====
   ************* The following error categories occurred.  Consider correcting or noting.
   ************* Nominally Unused Constructions
   ************* ..The nominally unused constructions warning is provided to alert you to potential conditions that can cause
   ************* ..extra time during simulation. Each construction is calculated by the algorithm indicated in the HeatBalanceAlgorithm
   ************* ..object. You may remove the constructions indicated (when you use the DisplayExtraWarnings option).
   *************
   ************* EnergyPlus Warmup Error Summary. During Warmup: 1 Warning; 0 Severe Errors.
   ************* EnergyPlus Sizing Error Summary. During Sizing: 4 Warning; 0 Severe Errors.
   ************* EnergyPlus Completed Successfully-- 136454 Warning; 0 Severe Errors; Elapsed Time=00hr 06min 29.07sec
