Program Version,EnergyPlus, Version 22.2.0-c249759bad, YMD=2023.09.01 19:06,
   ************* Beginning Zone Sizing Calculations
   ** Warning ** ProcessScheduleInput: Schedule:Constant="ALWAYS ON DISCRETE", Schedule Type Limits Name="ONOFF" not found -- will not be validated
   ** Warning ** Foundation:Kiva="KIVA FOUNDATION", no Interior Horizontal Insulation Material Name defined
   **   ~~~   ** Interior Horizontal Insulation Depth will not be used.
   ** Warning ** CheckUsedConstructions: There are 15 nominally unused constructions in input.
   **   ~~~   ** Each Unused construction is shown.
   ************* Construction=INTERIOR FLOOR
   ************* Construction=INTERIOR WINDOW
   ************* Construction=EXTERIOR DOOR
   ************* Construction=INTERIOR DOOR
   ************* Construction=GABLE CONSTRUCTION
   ************* Construction=CRAWL_FLOOR
   ************* Construction=INSULATED PIPE
   ************* Construction=PLAIN PIPE
   ************* Construction=TDD PIPE
   ************* Construction=TDD DOME
   ************* Construction=TDD DIFFUSER
   ************* Construction=CRAWL WALL
   ************* Construction=CEILING-FLOOR-LAYER
   ************* Construction=SLAB CONSTRUCTION W FULL R10 INSULATION
   ************* Construction=SLAB CONSTRUCTION W FULL R5 INSULATION
   ** Warning ** GetDXCoils: Coil:Heating:DX:SingleSpeed="DX_HEATING_COIL" curve values
   **   ~~~   ** ... Defrost Energy Input Ratio Function of Temperature Curve Name = DEFROSTEIR output is not equal to 1.0 (+ or - 10%) at rated conditions.
   **   ~~~   ** ... Curve output at rated conditions = 0.152
   ************* Beginning System Sizing Calculations
   ************* Beginning Plant Sizing Calculations
   ** Warning ** Coil:WaterHeating:AirToWaterHeatPump:Wrapped "HEAT PUMP WATER HEATER EVAPORATOR": Rated air volume flow rate per watt of rated total water heating capacity is out of range
   **   ~~~   ** Min Rated Vol Flow Per Watt=[4.027E-005], Rated Vol Flow Per Watt=[1.510E-004], Max Rated Vol Flow Per Watt=[8.056E-005]. See Input-Output Reference Manual for valid range.
   ************* SizeFan: : Potential issue with equipment sizing for Fan:OnOff HEAT PUMP WATER HEATER FAN
   **   ~~~   ** User-Specified Maximum Flow Rate [m3/s] = 0.22653
   **   ~~~   ** differs from Design Size Maximum Flow Rate [m3/s] = 7.55250E-002
   **   ~~~   ** This may, or may not, indicate mismatched component sizes.
   **   ~~~   ** Verify that the value entered is intended and is consistent with other components.
   ** Warning ** Water heater = WATER HEATER TANK:  Recovery Efficiency and Energy Factor could not be calculated during the test for standard ratings
   **   ~~~   ** Setpoint was never recovered and/or heater never turned on
   ** Warning ** Check input. Pump nominal power or motor efficiency is set to 0, for pump=MAINS PRESSURE
   ** Warning ** AirflowNetwork::Solver::validate_distribution: Heat pump water heater is simulated along with an AirflowNetwork but is not included in the AirflowNetwork.
   ** Warning ** Output:Meter: invalid Key Name="ELECTRIC_RANGE:INTERIOREQUIPMENT:ELECTRICITY" - not found.
   ** Warning ** Output:Meter: invalid Key Name="ELECTRIC_DRYER:INTERIOREQUIPMENT:ELECTRICITY" - not found.
   ** Warning ** Output:Meter: invalid Key Name="HEATRECOVERY:ELECTRICITY" - not found.
   ** Warning ** Output:Meter: invalid Key Name="HEATING:NATURALGAS" - not found.
   ** Warning ** Output:Meter: invalid Key Name="WATERSYSTEMS:NATURALGAS" - not found.
   ** Warning ** Output:Meter: invalid Key Name="PROPANE:FACILITY" - not found.
   ** Warning ** Output:Meter: invalid Key Name="HEATING:PROPANE" - not found.
   ************* Testing Individual Branch Integrity
   ************* All Branches passed integrity testing
   ************* Testing Individual Supply Air Path Integrity
   ************* All Supply Air Paths passed integrity testing
   ************* Testing Individual Return Air Path Integrity
   ************* All Return Air Paths passed integrity testing
   ************* No node connection errors were found.
   ************* Beginning Simulation
   ** Warning ** CalcEquipmentFlowRates: "TOTAL HOT WATER LOAD" - Target water temperature is greater than the hot water temperature by (1.98 C)
   **   ~~~   **  Environment=EXTREME_WINTER, at Simulation time=12/15 06:45 - 07:00
   **   ~~~   ** ...target water temperature     = 53.33 C
   **   ~~~   ** ...hot water temperature        = 51.36 C
   **   ~~~   ** ...Target water temperature should be less than or equal to the hot water temperature. Verify temperature setpoints and schedules.
   ** Warning ** SimHVAC: Maximum iterations (20) exceeded for all HVAC loops, at EXTREME_WINTER, 12/19 09:15 - 09:30
   **   ~~~   ** The solution for one or more of the Air Loop HVAC systems did not appear to converge
   **   ~~~   ** Air System Named = CENTRAL SYSTEM did not converge for mass flow rate
   **   ~~~   ** Check values should be zero. Most Recent values listed first.
   **   ~~~   ** Demand-to-Supply interface mass flow rate check value iteration history trace: 3.795921E-002,3.795921E-002,3.795921E-002,3.795921E-002,3.795921E-002,3.795921E-002,3.795921E-002,3.795921E-002,3.795921E-002,3.795921E-002,
   **   ~~~   ** Supply-to-demand interface deck 1 mass flow rate check value iteration history trace: 3.795921E-002,3.795921E-002,3.795921E-002,3.795921E-002,3.795921E-002,3.795921E-002,3.795921E-002,3.795921E-002,3.795921E-002,3.795921E-002,
   **   ~~~   ** Air System Named = CENTRAL SYSTEM did not converge for energy
   **   ~~~   ** Check values should be zero. Most Recent values listed first.
   **   ~~~   ** Demand-to-Supply interface energy check value iteration history trace: 751.114273,751.114273,751.114273,751.114273,751.114273,751.114273,751.114273,751.114273,751.114273,751.114272,
   **   ~~~   ** Supply-to-demand interface deck 1 energy check value iteration history trace: 1328.001693,1328.001693,1328.001693,1328.001693,1328.001693,1328.001693,1328.001693,1328.001692,1328.001692,1328.001692,
   ** Warning ** SimHVAC: Maximum iterations (20) exceeded for all HVAC loops, at ANNUAL, 01/25 08:00 - 08:15
   **   ~~~   ** The solution for one or more of the Air Loop HVAC systems did not appear to converge
   **   ~~~   ** Air System Named = CENTRAL SYSTEM did not converge for mass flow rate
   **   ~~~   ** Check values should be zero. Most Recent values listed first.
   **   ~~~   ** Demand-to-Supply interface mass flow rate check value iteration history trace: 6.352323E-002,6.352323E-002,6.352323E-002,6.352323E-002,6.352323E-002,6.352323E-002,6.352323E-002,6.352323E-002,6.352323E-002,6.352323E-002,
   **   ~~~   ** Supply-to-demand interface deck 1 mass flow rate check value iteration history trace: 6.352323E-002,6.352323E-002,6.352323E-002,6.352323E-002,6.352323E-002,6.352323E-002,6.352323E-002,6.352323E-002,6.352323E-002,6.352323E-002,
   **   ~~~   ** Air System Named = CENTRAL SYSTEM did not converge for energy
   **   ~~~   ** Check values should be zero. Most Recent values listed first.
   **   ~~~   ** Demand-to-Supply interface energy check value iteration history trace: 1259.724465,1259.724465,1259.724465,1259.724465,1259.724465,1259.724465,1259.724465,1259.724465,1259.724465,1259.724465,
   **   ~~~   ** Supply-to-demand interface deck 1 energy check value iteration history trace: 2152.851523,2152.851522,2152.851522,2152.851522,2152.851522,2152.851522,2152.851522,2152.851522,2152.851522,2152.851522,
   ** Warning ** SimHVAC: Maximum iterations (20) exceeded for all HVAC loops, at ANNUAL, 02/09 09:19 - 09:22
   **   ~~~   ** The solution for one or more of the Air Loop HVAC systems did not appear to converge
   **   ~~~   ** Air System Named = CENTRAL SYSTEM did not converge for mass flow rate
   **   ~~~   ** Check values should be zero. Most Recent values listed first.
   **   ~~~   ** Demand-to-Supply interface mass flow rate check value iteration history trace: 3.781710E-002,3.781710E-002,3.781710E-002,3.781710E-002,3.781710E-002,3.781710E-002,3.781710E-002,3.781710E-002,3.781710E-002,3.781710E-002,
   **   ~~~   ** Supply-to-demand interface deck 1 mass flow rate check value iteration history trace: 3.781710E-002,3.781710E-002,3.781710E-002,3.781710E-002,3.781710E-002,3.781710E-002,3.781710E-002,3.781710E-002,3.781710E-002,3.781710E-002,
   **   ~~~   ** Air System Named = CENTRAL SYSTEM did not converge for energy
   **   ~~~   ** Check values should be zero. Most Recent values listed first.
   **   ~~~   ** Demand-to-Supply interface energy check value iteration history trace: 891.695448,891.695449,891.695449,891.695449,891.695449,891.695449,891.695449,891.695449,891.695450,891.695450,
   **   ~~~   ** Supply-to-demand interface deck 1 energy check value iteration history trace: 350.418925,350.418925,350.418926,350.418926,350.418926,350.418926,350.418926,350.418926,350.418926,350.418926,
   ** Warning ** SimHVAC: Maximum iterations (20) exceeded for all HVAC loops, at ANNUAL, 02/09 10:23 - 10:25
   **   ~~~   ** The solution for one or more of the Air Loop HVAC systems did not appear to converge
   **   ~~~   ** Air System Named = CENTRAL SYSTEM did not converge for mass flow rate
   **   ~~~   ** Check values should be zero. Most Recent values listed first.
   **   ~~~   ** Demand-to-Supply interface mass flow rate check value iteration history trace: 7.482286E-002,7.482286E-002,7.482286E-002,7.482286E-002,7.482286E-002,7.482286E-002,7.482286E-002,7.482286E-002,7.482286E-002,7.482286E-002,
   **   ~~~   ** Supply-to-demand interface deck 1 mass flow rate check value iteration history trace: 7.482286E-002,7.482286E-002,7.482286E-002,7.482286E-002,7.482286E-002,7.482286E-002,7.482286E-002,7.482286E-002,7.482286E-002,7.482286E-002,
   **   ~~~   ** Air System Named = CENTRAL SYSTEM did not converge for energy
   **   ~~~   ** Check values should be zero. Most Recent values listed first.
   **   ~~~   ** Demand-to-Supply interface energy check value iteration history trace: 1759.578647,1759.578648,1759.578648,1759.578648,1759.578649,1759.578649,1759.578649,1759.578649,1759.578650,1759.578650,
   **   ~~~   ** Supply-to-demand interface deck 1 energy check value iteration history trace: 687.416563,687.416563,687.416563,687.416563,687.416563,687.416563,687.416563,687.416563,687.416564,687.416564,
   ** Warning ** SimHVAC: Maximum iterations (20) exceeded for all HVAC loops, at ANNUAL, 02/11 12:15 - 12:30
   **   ~~~   ** The solution for one or more of the Air Loop HVAC systems did not appear to converge
   **   ~~~   ** Air System Named = CENTRAL SYSTEM did not converge for mass flow rate
   **   ~~~   ** Check values should be zero. Most Recent values listed first.
   **   ~~~   ** Demand-to-Supply interface mass flow rate check value iteration history trace: 8.195873E-002,8.195873E-002,8.195873E-002,8.195873E-002,8.195873E-002,8.195873E-002,8.195873E-002,8.195873E-002,8.195873E-002,8.195873E-002,
   **   ~~~   ** Supply-to-demand interface deck 1 mass flow rate check value iteration history trace: 8.195873E-002,8.195873E-002,8.195873E-002,8.195873E-002,8.195873E-002,8.195873E-002,8.195873E-002,8.195873E-002,8.195873E-002,8.195873E-002,
   **   ~~~   ** Air System Named = CENTRAL SYSTEM did not converge for energy
   **   ~~~   ** Check values should be zero. Most Recent values listed first.
   **   ~~~   ** Demand-to-Supply interface energy check value iteration history trace: 1958.694528,1958.694529,1958.694529,1958.694530,1958.694530,1958.694530,1958.694531,1958.694531,1958.694532,1958.694532,
   **   ~~~   ** Supply-to-demand interface deck 1 energy check value iteration history trace: 850.039922,850.039922,850.039922,850.039922,850.039923,850.039923,850.039923,850.039923,850.039923,850.039923,
   ** Warning ** SimHVAC: Maximum iterations (20) exceeded for all HVAC loops, at ANNUAL, 02/14 21:08 - 21:15
   **   ~~~   ** The solution for one or more of the Air Loop HVAC systems did not appear to converge
   **   ~~~   ** Air System Named = CENTRAL SYSTEM did not converge for mass flow rate
   **   ~~~   ** Check values should be zero. Most Recent values listed first.
   **   ~~~   ** Demand-to-Supply interface mass flow rate check value iteration history trace: 0.224214,0.224214,0.224214,0.224214,0.224214,0.224214,0.224214,0.224214,0.224214,0.224214,
   **   ~~~   ** Supply-to-demand interface deck 1 mass flow rate check value iteration history trace: 0.224214,0.224214,0.224214,0.224214,0.224214,0.224214,0.224214,0.224214,0.224214,0.224214,
   **   ~~~   ** Air System Named = CENTRAL SYSTEM did not converge for energy
   **   ~~~   ** Check values should be zero. Most Recent values listed first.
   **   ~~~   ** Demand-to-Supply interface energy check value iteration history trace: 5401.688013,5401.688013,5401.688014,5401.688015,5401.688015,5401.688016,5401.688016,5401.688017,5401.688018,5401.688018,
   **   ~~~   ** Supply-to-demand interface deck 1 energy check value iteration history trace: 2126.839756,2126.839756,2126.839756,2126.839757,2126.839757,2126.839757,2126.839757,2126.839757,2126.839758,2126.839758,
   ** Warning ** SimHVAC: Maximum iterations (20) exceeded for all HVAC loops, at ANNUAL, 02/23 18:20 - 18:25
   **   ~~~   ** The solution for one or more of the Air Loop HVAC systems did not appear to converge
   **   ~~~   ** Air System Named = CENTRAL SYSTEM did not converge for mass flow rate
   **   ~~~   ** Check values should be zero. Most Recent values listed first.
   **   ~~~   ** Demand-to-Supply interface mass flow rate check value iteration history trace: 7.423922E-002,7.423922E-002,7.423922E-002,7.423922E-002,7.423922E-002,7.423922E-002,7.423922E-002,7.423922E-002,7.423922E-002,7.423922E-002,
   **   ~~~   ** Supply-to-demand interface deck 1 mass flow rate check value iteration history trace: 7.423922E-002,7.423922E-002,7.423922E-002,7.423922E-002,7.423922E-002,7.423922E-002,7.423922E-002,7.423922E-002,7.423922E-002,7.423922E-002,
   **   ~~~   ** Air System Named = CENTRAL SYSTEM did not converge for energy
   **   ~~~   ** Check values should be zero. Most Recent values listed first.
   **   ~~~   ** Demand-to-Supply interface energy check value iteration history trace: 1756.919661,1756.919661,1756.919661,1756.919662,1756.919662,1756.919662,1756.919662,1756.919662,1756.919662,1756.919662,
   **   ~~~   ** Supply-to-demand interface deck 1 energy check value iteration history trace: 654.136193,654.136193,654.136193,654.136193,654.136193,654.136193,654.136193,654.136193,654.136193,654.136193,
   ** Warning ** SimHVAC: Maximum iterations (20) exceeded for all HVAC loops, at ANNUAL, 02/28 10:20 - 10:25
   **   ~~~   ** The solution for one or more of the Air Loop HVAC systems did not appear to converge
   **   ~~~   ** Air System Named = CENTRAL SYSTEM did not converge for energy
   **   ~~~   ** Check values should be zero. Most Recent values listed first.
   **   ~~~   ** Demand-to-Supply interface energy check value iteration history trace: 212.142642,212.142642,212.142642,212.142642,212.142642,212.142642,212.142642,212.142642,212.142642,212.142642,
   **   ~~~   ** Supply-to-demand interface deck 1 energy check value iteration history trace: 77.238278,77.238278,77.238278,77.238278,77.238278,77.238278,77.238278,77.238278,77.238278,77.238278,
   ** Warning ** SimHVAC: Maximum iterations (20) exceeded for all HVAC loops, at ANNUAL, 02/28 11:15 - 11:30
   **   ~~~   ** The solution for one or more of the Air Loop HVAC systems did not appear to converge
   **   ~~~   ** Air System Named = CENTRAL SYSTEM did not converge for mass flow rate
   **   ~~~   ** Check values should be zero. Most Recent values listed first.
   **   ~~~   ** Demand-to-Supply interface mass flow rate check value iteration history trace: 2.137591E-002,2.137591E-002,2.137591E-002,2.137591E-002,2.137591E-002,2.137591E-002,2.137591E-002,2.137591E-002,2.137591E-002,2.137591E-002,
   **   ~~~   ** Supply-to-demand interface deck 1 mass flow rate check value iteration history trace: 2.137591E-002,2.137591E-002,2.137591E-002,2.137591E-002,2.137591E-002,2.137591E-002,2.137591E-002,2.137591E-002,2.137591E-002,2.137591E-002,
   **   ~~~   ** Air System Named = CENTRAL SYSTEM did not converge for energy
   **   ~~~   ** Check values should be zero. Most Recent values listed first.
   **   ~~~   ** Demand-to-Supply interface energy check value iteration history trace: 501.647688,501.647688,501.647688,501.647688,501.647688,501.647688,501.647688,501.647688,501.647688,501.647688,
   **   ~~~   ** Supply-to-demand interface deck 1 energy check value iteration history trace: 181.496493,181.496493,181.496493,181.496493,181.496493,181.496493,181.496493,181.496493,181.496493,181.496493,
   ** Warning ** SimHVAC: Maximum iterations (20) exceeded for all HVAC loops, at ANNUAL, 03/02 10:19 - 10:21
   **   ~~~   ** The solution for one or more of the Air Loop HVAC systems did not appear to converge
   **   ~~~   ** Air System Named = CENTRAL SYSTEM did not converge for mass flow rate
   **   ~~~   ** Check values should be zero. Most Recent values listed first.
   **   ~~~   ** Demand-to-Supply interface mass flow rate check value iteration history trace: 0.172494,0.172494,0.172494,0.172494,0.172494,0.172494,0.172494,0.172494,0.172494,0.172494,
   **   ~~~   ** Supply-to-demand interface deck 1 mass flow rate check value iteration history trace: 0.172494,0.172494,0.172494,0.172494,0.172494,0.172494,0.172494,0.172494,0.172494,0.172494,
   **   ~~~   ** Air System Named = CENTRAL SYSTEM did not converge for energy
   **   ~~~   ** Check values should be zero. Most Recent values listed first.
   **   ~~~   ** Demand-to-Supply interface energy check value iteration history trace: 4078.825294,4078.825295,4078.825295,4078.825296,4078.825297,4078.825297,4078.825298,4078.825299,4078.825299,4078.825300,
   **   ~~~   ** Supply-to-demand interface deck 1 energy check value iteration history trace: 1741.034269,1741.034269,1741.034269,1741.034269,1741.034270,1741.034270,1741.034270,1741.034271,1741.034271,1741.034271,
   ** Warning ** SimHVAC: Maximum iterations (20) exceeded for all HVAC loops, at ANNUAL, 03/02 10:34 - 10:36
   **   ~~~   ** The solution for one or more of the Air Loop HVAC systems did not appear to converge
   **   ~~~   ** Air System Named = CENTRAL SYSTEM did not converge for mass flow rate
   **   ~~~   ** Check values should be zero. Most Recent values listed first.
   **   ~~~   ** Demand-to-Supply interface mass flow rate check value iteration history trace: 0.179145,0.179145,0.179145,0.179145,0.179145,0.179145,0.179145,0.179145,0.179145,0.179145,
   **   ~~~   ** Supply-to-demand interface deck 1 mass flow rate check value iteration history trace: 0.179145,0.179145,0.179145,0.179145,0.179145,0.179145,0.179145,0.179145,0.179145,0.179145,
   **   ~~~   ** Air System Named = CENTRAL SYSTEM did not converge for energy
   **   ~~~   ** Check values should be zero. Most Recent values listed first.
   **   ~~~   ** Demand-to-Supply interface energy check value iteration history trace: 4235.973216,4235.973216,4235.973217,4235.973218,4235.973219,4235.973219,4235.973220,4235.973221,4235.973221,4235.973222,
   **   ~~~   ** Supply-to-demand interface deck 1 energy check value iteration history trace: 1807.477683,1807.477683,1807.477683,1807.477684,1807.477684,1807.477684,1807.477685,1807.477685,1807.477685,1807.477686,
   ** Warning ** SimHVAC: Maximum iterations (20) exceeded for all HVAC loops, at ANNUAL, 03/02 10:45 - 11:00
   **   ~~~   ** The solution for one or more of the Air Loop HVAC systems did not appear to converge
   **   ~~~   ** Air System Named = CENTRAL SYSTEM did not converge for mass flow rate
   **   ~~~   ** Check values should be zero. Most Recent values listed first.
   **   ~~~   ** Demand-to-Supply interface mass flow rate check value iteration history trace: 5.478846E-002,5.478846E-002,5.478846E-002,5.478846E-002,5.478846E-002,5.478846E-002,5.478846E-002,5.478846E-002,5.478846E-002,5.478846E-002,
   **   ~~~   ** Supply-to-demand interface deck 1 mass flow rate check value iteration history trace: 5.478846E-002,5.478846E-002,5.478846E-002,5.478846E-002,5.478846E-002,5.478846E-002,5.478846E-002,5.478846E-002,5.478846E-002,5.478846E-002,
   **   ~~~   ** Air System Named = CENTRAL SYSTEM did not converge for energy
   **   ~~~   ** Check values should be zero. Most Recent values listed first.
   **   ~~~   ** Demand-to-Supply interface energy check value iteration history trace: 1295.655581,1295.655581,1295.655582,1295.655582,1295.655582,1295.655582,1295.655582,1295.655583,1295.655583,1295.655583,
   **   ~~~   ** Supply-to-demand interface deck 1 energy check value iteration history trace: 551.557770,551.557770,551.557770,551.557770,551.557770,551.557770,551.557770,551.557770,551.557771,551.557771,
   ** Warning ** SimHVAC: Maximum iterations (20) exceeded for all HVAC loops, at ANNUAL, 12/12 06:45 - 06:52
   **   ~~~   ** The solution for one or more of the Air Loop HVAC systems did not appear to converge
   **   ~~~   ** Air System Named = CENTRAL SYSTEM did not converge for mass flow rate
   **   ~~~   ** Check values should be zero. Most Recent values listed first.
   **   ~~~   ** Demand-to-Supply interface mass flow rate check value iteration history trace: 6.450688E-002,6.450688E-002,6.450688E-002,6.450688E-002,6.450688E-002,6.450688E-002,6.450688E-002,6.450688E-002,6.450688E-002,6.450688E-002,
   **   ~~~   ** Supply-to-demand interface deck 1 mass flow rate check value iteration history trace: 6.450688E-002,6.450688E-002,6.450688E-002,6.450688E-002,6.450688E-002,6.450688E-002,6.450688E-002,6.450688E-002,6.450688E-002,6.450688E-002,
   **   ~~~   ** Air System Named = CENTRAL SYSTEM did not converge for energy
   **   ~~~   ** Check values should be zero. Most Recent values listed first.
   **   ~~~   ** Demand-to-Supply interface energy check value iteration history trace: 1277.348540,1277.348540,1277.348540,1277.348540,1277.348540,1277.348540,1277.348540,1277.348540,1277.348540,1277.348540,
   **   ~~~   ** Supply-to-demand interface deck 1 energy check value iteration history trace: 2168.107678,2168.107678,2168.107677,2168.107677,2168.107677,2168.107677,2168.107677,2168.107677,2168.107677,2168.107677,
   ** Warning ** SimHVAC: Maximum iterations (20) exceeded for all HVAC loops, at ANNUAL, 12/16 10:30 - 10:45
   **   ~~~   ** The solution for one or more of the Air Loop HVAC systems did not appear to converge
   **   ~~~   ** Air System Named = CENTRAL SYSTEM did not converge for mass flow rate
   **   ~~~   ** Check values should be zero. Most Recent values listed first.
   **   ~~~   ** Demand-to-Supply interface mass flow rate check value iteration history trace: 5.515858E-002,5.515858E-002,5.515858E-002,5.515858E-002,5.515858E-002,5.515858E-002,5.515858E-002,5.515858E-002,5.515858E-002,5.515858E-002,
   **   ~~~   ** Supply-to-demand interface deck 1 mass flow rate check value iteration history trace: 5.515858E-002,5.515858E-002,5.515858E-002,5.515858E-002,5.515858E-002,5.515858E-002,5.515858E-002,5.515858E-002,5.515858E-002,5.515858E-002,
   **   ~~~   ** Air System Named = CENTRAL SYSTEM did not converge for energy
   **   ~~~   ** Check values should be zero. Most Recent values listed first.
   **   ~~~   ** Demand-to-Supply interface energy check value iteration history trace: 1074.848502,1074.848502,1074.848502,1074.848502,1074.848502,1074.848502,1074.848502,1074.848502,1074.848502,1074.848502,
   **   ~~~   ** Supply-to-demand interface deck 1 energy check value iteration history trace: 1960.467886,1960.467886,1960.467886,1960.467886,1960.467886,1960.467886,1960.467886,1960.467886,1960.467886,1960.467886,
   ************* Simulation Error Summary *************
   ** Warning ** The following Report Variables were requested but not generated -- check.rdd file
   **   ~~~   ** Either the IDF did not contain these elements, the variable name is misspelled,
   **   ~~~   ** or the requested variable is an advanced output which requires Output : Diagnostics, DisplayAdvancedReportVariables;
   ************* Key=*, VarName=BASEBOARD TOTAL HEATING ENERGY, Frequency=
   ************* Key=*, VarName=WATER HEATER NATURALGAS ENERGY, Frequency=
   ************* Key=*, VarName=COOLING COIL TOTAL HEATING ENERGY, Frequency=
   ************* There are 34 unused schedules in input.
   ************* There are 388 unused week schedules in input.
   ************* There are 397 unused day schedules in input.
   ************* Use Output:Diagnostics,DisplayUnusedSchedules; to see them.
   *************
   ************* ===== Recurring Error Summary =====
   ************* The following recurring error messages occurred.
   *************
   *************  ** Warning ** "TOTAL HOT WATER LOAD" - Target water temperature should be less than or equal to the hot water temperature error continues...
   *************  **   ~~~   **   This error occurred 127011 total times;
   *************  **   ~~~   **   during Warmup 0 times;
   *************  **   ~~~   **   during Sizing 0 times.
   *************  **   ~~~   **   Max=8.918911  Min=1.188139E-003
   *************
   *************  ** Warning ** SimHVAC: Exceeding Maximum iterations for all HVAC loops, during ANNUAL continues
   *************  **   ~~~   **   This error occurred 2 total times;
   *************  **   ~~~   **   during Warmup 0 times;
   *************  **   ~~~   **   during Sizing 0 times.
   *************
   *************
   ************* ===== Final Error Summary =====
   ************* The following error categories occurred.  Consider correcting or noting.
   ************* Nominally Unused Constructions
   ************* ..The nominally unused constructions warning is provided to alert you to potential conditions that can cause
   ************* ..extra time during simulation. Each construction is calculated by the algorithm indicated in the HeatBalanceAlgorithm
   ************* ..object. You may remove the constructions indicated (when you use the DisplayExtraWarnings option).
   *************
   ************* EnergyPlus Warmup Error Summary. During Warmup: 0 Warning; 0 Severe Errors.
   ************* EnergyPlus Sizing Error Summary. During Sizing: 4 Warning; 0 Severe Errors.
   ************* EnergyPlus Completed Successfully-- 127044 Warning; 0 Severe Errors; Elapsed Time=00hr 02min  3.19sec
