Program Version,EnergyPlus, Version 22.2.0-c249759bad, YMD=2023.09.01 18:56,
   ************* Beginning Zone Sizing Calculations
   ** Warning ** ProcessScheduleInput: Schedule:Constant="ALWAYS ON DISCRETE", Schedule Type Limits Name="ONOFF" not found -- will not be validated
   ** Warning ** Foundation:Kiva="KIVA FOUNDATION", no Interior Horizontal Insulation Material Name defined
   **   ~~~   ** Interior Horizontal Insulation Depth will not be used.
   ** Warning ** CheckUsedConstructions: There are 15 nominally unused constructions in input.
   **   ~~~   ** Each Unused construction is shown.
   ************* Construction=INTERIOR FLOOR
   ************* Construction=INTERIOR WINDOW
   ************* Construction=EXTERIOR DOOR
   ************* Construction=INTERIOR DOOR
   ************* Construction=GABLE CONSTRUCTION
   ************* Construction=CRAWL_FLOOR
   ************* Construction=INSULATED PIPE
   ************* Construction=PLAIN PIPE
   ************* Construction=TDD PIPE
   ************* Construction=TDD DOME
   ************* Construction=TDD DIFFUSER
   ************* Construction=CRAWL WALL
   ************* Construction=CEILING-FLOOR-LAYER
   ************* Construction=SLAB CONSTRUCTION W FULL R10 INSULATION
   ************* Construction=SLAB CONSTRUCTION W FULL R5 INSULATION
   ** Warning ** GetDXCoils: Coil:Heating:DX:SingleSpeed="DX_HEATING_COIL" curve values
   **   ~~~   ** ... Defrost Energy Input Ratio Function of Temperature Curve Name = DEFROSTEIR output is not equal to 1.0 (+ or - 10%) at rated conditions.
   **   ~~~   ** ... Curve output at rated conditions = 0.152
   ************* Beginning System Sizing Calculations
   ************* Beginning Plant Sizing Calculations
   ** Warning ** Coil:WaterHeating:AirToWaterHeatPump:Wrapped "HEAT PUMP WATER HEATER EVAPORATOR": Rated air volume flow rate per watt of rated total water heating capacity is out of range
   **   ~~~   ** Min Rated Vol Flow Per Watt=[4.027E-005], Rated Vol Flow Per Watt=[1.510E-004], Max Rated Vol Flow Per Watt=[8.056E-005]. See Input-Output Reference Manual for valid range.
   ************* SizeFan: : Potential issue with equipment sizing for Fan:OnOff HEAT PUMP WATER HEATER FAN
   **   ~~~   ** User-Specified Maximum Flow Rate [m3/s] = 0.22653
   **   ~~~   ** differs from Design Size Maximum Flow Rate [m3/s] = 7.55250E-002
   **   ~~~   ** This may, or may not, indicate mismatched component sizes.
   **   ~~~   ** Verify that the value entered is intended and is consistent with other components.
   ** Warning ** Water heater = WATER HEATER TANK:  Recovery Efficiency and Energy Factor could not be calculated during the test for standard ratings
   **   ~~~   ** Setpoint was never recovered and/or heater never turned on
   ** Warning ** Check input. Pump nominal power or motor efficiency is set to 0, for pump=MAINS PRESSURE
   ** Warning ** Output:Meter: invalid Key Name="ELECTRIC_RANGE:INTERIOREQUIPMENT:ELECTRICITY" - not found.
   ** Warning ** Output:Meter: invalid Key Name="ELECTRIC_DRYER:INTERIOREQUIPMENT:ELECTRICITY" - not found.
   ** Warning ** Output:Meter: invalid Key Name="HEATRECOVERY:ELECTRICITY" - not found.
   ** Warning ** Output:Meter: invalid Key Name="HEATING:NATURALGAS" - not found.
   ** Warning ** Output:Meter: invalid Key Name="WATERSYSTEMS:NATURALGAS" - not found.
   ** Warning ** Output:Meter: invalid Key Name="PROPANE:FACILITY" - not found.
   ** Warning ** Output:Meter: invalid Key Name="HEATING:PROPANE" - not found.
   ************* Testing Individual Branch Integrity
   ************* All Branches passed integrity testing
   ************* Testing Individual Supply Air Path Integrity
   ************* All Supply Air Paths passed integrity testing
   ************* Testing Individual Return Air Path Integrity
   ************* All Return Air Paths passed integrity testing
   ************* No node connection errors were found.
   ************* Beginning Simulation
   ** Warning ** AirflowNetwork::Solver::validate_distribution: Heat pump water heater is simulated along with an AirflowNetwork but is not included in the AirflowNetwork.
   ** Warning ** CalcEquipmentFlowRates: "TOTAL HOT WATER LOAD" - Target water temperature is greater than the hot water temperature by (1.30 C)
   **   ~~~   **  Environment=EXTREME_WINTER, at Simulation time=01/06 03:45 - 04:00
   **   ~~~   ** ...target water temperature     = 53.33 C
   **   ~~~   ** ...hot water temperature        = 52.04 C
   **   ~~~   ** ...Target water temperature should be less than or equal to the hot water temperature. Verify temperature setpoints and schedules.
   ** Warning ** SimHVAC: Maximum iterations (20) exceeded for all HVAC loops, at ANNUAL, 01/07 09:30 - 09:45
   **   ~~~   ** The solution for one or more of the Air Loop HVAC systems did not appear to converge
   **   ~~~   ** Air System Named = CENTRAL SYSTEM did not converge for mass flow rate
   **   ~~~   ** Check values should be zero. Most Recent values listed first.
   **   ~~~   ** Demand-to-Supply interface mass flow rate check value iteration history trace: 7.197975E-002,7.197975E-002,7.197975E-002,7.197975E-002,7.197975E-002,7.197975E-002,7.197975E-002,7.197975E-002,7.197975E-002,7.197975E-002,
   **   ~~~   ** Supply-to-demand interface deck 1 mass flow rate check value iteration history trace: 7.197975E-002,7.197975E-002,7.197975E-002,7.197975E-002,7.197975E-002,7.197975E-002,7.197975E-002,7.197975E-002,7.197975E-002,7.197975E-002,
   **   ~~~   ** Air System Named = CENTRAL SYSTEM did not converge for energy
   **   ~~~   ** Check values should be zero. Most Recent values listed first.
   **   ~~~   ** Demand-to-Supply interface energy check value iteration history trace: 1426.317916,1426.317916,1426.317916,1426.317916,1426.317915,1426.317915,1426.317915,1426.317915,1426.317915,1426.317915,
   **   ~~~   ** Supply-to-demand interface deck 1 energy check value iteration history trace: 2469.646325,2469.646325,2469.646325,2469.646325,2469.646325,2469.646325,2469.646324,2469.646324,2469.646324,2469.646324,
   ** Warning ** SimHVAC: Maximum iterations (20) exceeded for all HVAC loops, at ANNUAL, 01/07 09:35 - 09:40
   **   ~~~   ** The solution for one or more of the Air Loop HVAC systems did not appear to converge
   **   ~~~   ** Air System Named = CENTRAL SYSTEM did not converge for mass flow rate
   **   ~~~   ** Check values should be zero. Most Recent values listed first.
   **   ~~~   ** Demand-to-Supply interface mass flow rate check value iteration history trace: 7.194652E-002,7.194652E-002,7.194652E-002,7.194652E-002,7.194652E-002,7.194652E-002,7.194652E-002,7.194652E-002,7.194652E-002,7.194652E-002,
   **   ~~~   ** Supply-to-demand interface deck 1 mass flow rate check value iteration history trace: 7.194652E-002,7.194652E-002,7.194652E-002,7.194652E-002,7.194652E-002,7.194652E-002,7.194652E-002,7.194652E-002,7.194652E-002,7.194652E-002,
   **   ~~~   ** Air System Named = CENTRAL SYSTEM did not converge for energy
   **   ~~~   ** Check values should be zero. Most Recent values listed first.
   **   ~~~   ** Demand-to-Supply interface energy check value iteration history trace: 1425.887919,1425.887919,1425.887919,1425.887919,1425.887918,1425.887918,1425.887918,1425.887918,1425.887918,1425.887918,
   **   ~~~   ** Supply-to-demand interface deck 1 energy check value iteration history trace: 2468.700817,2468.700817,2468.700817,2468.700817,2468.700817,2468.700816,2468.700816,2468.700816,2468.700816,2468.700816,
   ** Warning ** SimHVAC: Maximum iterations (20) exceeded for all HVAC loops, at ANNUAL, 01/08 11:45 - 11:47
   **   ~~~   ** The solution for one or more of the Air Loop HVAC systems did not appear to converge
   **   ~~~   ** Air System Named = CENTRAL SYSTEM did not converge for mass flow rate
   **   ~~~   ** Check values should be zero. Most Recent values listed first.
   **   ~~~   ** Demand-to-Supply interface mass flow rate check value iteration history trace: 6.850536E-002,6.850536E-002,6.850536E-002,6.850536E-002,6.850536E-002,6.850536E-002,6.850536E-002,6.850536E-002,6.850536E-002,6.850536E-002,
   **   ~~~   ** Supply-to-demand interface deck 1 mass flow rate check value iteration history trace: 6.850536E-002,6.850536E-002,6.850536E-002,6.850536E-002,6.850536E-002,6.850536E-002,6.850536E-002,6.850536E-002,6.850536E-002,6.850536E-002,
   **   ~~~   ** Air System Named = CENTRAL SYSTEM did not converge for energy
   **   ~~~   ** Check values should be zero. Most Recent values listed first.
   **   ~~~   ** Demand-to-Supply interface energy check value iteration history trace: 1357.603329,1357.603329,1357.603329,1357.603329,1357.603329,1357.603329,1357.603328,1357.603328,1357.603328,1357.603328,
   **   ~~~   ** Supply-to-demand interface deck 1 energy check value iteration history trace: 2043.371002,2043.371002,2043.371002,2043.371002,2043.371002,2043.371002,2043.371002,2043.371001,2043.371001,2043.371001,
   ** Warning ** SimHVAC: Maximum iterations (20) exceeded for all HVAC loops, at ANNUAL, 01/08 16:20 - 16:25
   **   ~~~   ** The solution for one or more of the Air Loop HVAC systems did not appear to converge
   **   ~~~   ** Air System Named = CENTRAL SYSTEM did not converge for mass flow rate
   **   ~~~   ** Check values should be zero. Most Recent values listed first.
   **   ~~~   ** Demand-to-Supply interface mass flow rate check value iteration history trace: 6.911659E-002,6.911659E-002,6.911659E-002,6.911659E-002,6.911659E-002,6.911659E-002,6.911659E-002,6.911659E-002,6.911659E-002,6.911659E-002,
   **   ~~~   ** Supply-to-demand interface deck 1 mass flow rate check value iteration history trace: 6.911659E-002,6.911659E-002,6.911659E-002,6.911659E-002,6.911659E-002,6.911659E-002,6.911659E-002,6.911659E-002,6.911659E-002,6.911659E-002,
   **   ~~~   ** Air System Named = CENTRAL SYSTEM did not converge for energy
   **   ~~~   ** Check values should be zero. Most Recent values listed first.
   **   ~~~   ** Demand-to-Supply interface energy check value iteration history trace: 1369.347632,1369.347632,1369.347632,1369.347632,1369.347632,1369.347631,1369.347631,1369.347631,1369.347631,1369.347631,
   **   ~~~   ** Supply-to-demand interface deck 1 energy check value iteration history trace: 2135.036382,2135.036382,2135.036382,2135.036382,2135.036381,2135.036381,2135.036381,2135.036381,2135.036381,2135.036381,
   ** Warning ** SimHVAC: Maximum iterations (20) exceeded for all HVAC loops, at ANNUAL, 01/25 08:30 - 08:32
   **   ~~~   ** The solution for one or more of the Air Loop HVAC systems did not appear to converge
   **   ~~~   ** Air System Named = CENTRAL SYSTEM did not converge for mass flow rate
   **   ~~~   ** Check values should be zero. Most Recent values listed first.
   **   ~~~   ** Demand-to-Supply interface mass flow rate check value iteration history trace: 6.765645E-002,6.765645E-002,6.765645E-002,6.765645E-002,6.765645E-002,6.765645E-002,6.765645E-002,6.765645E-002,6.765645E-002,6.765645E-002,
   **   ~~~   ** Supply-to-demand interface deck 1 mass flow rate check value iteration history trace: 6.765645E-002,6.765645E-002,6.765645E-002,6.765645E-002,6.765645E-002,6.765645E-002,6.765645E-002,6.765645E-002,6.765645E-002,6.765645E-002,
   **   ~~~   ** Air System Named = CENTRAL SYSTEM did not converge for energy
   **   ~~~   ** Check values should be zero. Most Recent values listed first.
   **   ~~~   ** Demand-to-Supply interface energy check value iteration history trace: 1340.711448,1340.711448,1340.711448,1340.711448,1340.711448,1340.711448,1340.711448,1340.711448,1340.711448,1340.711448,
   **   ~~~   ** Supply-to-demand interface deck 1 energy check value iteration history trace: 2356.444292,2356.444292,2356.444292,2356.444292,2356.444292,2356.444292,2356.444292,2356.444292,2356.444291,2356.444291,
   ** Warning ** SimHVAC: Maximum iterations (20) exceeded for all HVAC loops, at ANNUAL, 01/25 08:45 - 08:47
   **   ~~~   ** The solution for one or more of the Air Loop HVAC systems did not appear to converge
   **   ~~~   ** Air System Named = CENTRAL SYSTEM did not converge for mass flow rate
   **   ~~~   ** Check values should be zero. Most Recent values listed first.
   **   ~~~   ** Demand-to-Supply interface mass flow rate check value iteration history trace: 6.449543E-002,6.449543E-002,6.449543E-002,6.449543E-002,6.449543E-002,6.449543E-002,6.449543E-002,6.449543E-002,6.449543E-002,6.449543E-002,
   **   ~~~   ** Supply-to-demand interface deck 1 mass flow rate check value iteration history trace: 6.449543E-002,6.449543E-002,6.449543E-002,6.449543E-002,6.449543E-002,6.449543E-002,6.449543E-002,6.449543E-002,6.449543E-002,6.449543E-002,
   **   ~~~   ** Air System Named = CENTRAL SYSTEM did not converge for energy
   **   ~~~   ** Check values should be zero. Most Recent values listed first.
   **   ~~~   ** Demand-to-Supply interface energy check value iteration history trace: 1275.378745,1275.378745,1275.378745,1275.378745,1275.378745,1275.378745,1275.378745,1275.378745,1275.378745,1275.378745,
   **   ~~~   ** Supply-to-demand interface deck 1 energy check value iteration history trace: 2266.259713,2266.259713,2266.259713,2266.259713,2266.259713,2266.259713,2266.259713,2266.259713,2266.259713,2266.259713,
   ** Warning ** SimHVAC: Maximum iterations (20) exceeded for all HVAC loops, at ANNUAL, 01/27 08:32 - 08:35
   **   ~~~   ** The solution for one or more of the Air Loop HVAC systems did not appear to converge
   **   ~~~   ** Air System Named = CENTRAL SYSTEM did not converge for mass flow rate
   **   ~~~   ** Check values should be zero. Most Recent values listed first.
   **   ~~~   ** Demand-to-Supply interface mass flow rate check value iteration history trace: 6.121732E-002,6.121732E-002,6.121732E-002,6.121732E-002,6.121732E-002,6.121732E-002,6.121732E-002,6.121732E-002,6.121732E-002,6.121732E-002,
   **   ~~~   ** Supply-to-demand interface deck 1 mass flow rate check value iteration history trace: 6.121732E-002,6.121732E-002,6.121732E-002,6.121732E-002,6.121732E-002,6.121732E-002,6.121732E-002,6.121732E-002,6.121732E-002,6.121732E-002,
   **   ~~~   ** Air System Named = CENTRAL SYSTEM did not converge for energy
   **   ~~~   ** Check values should be zero. Most Recent values listed first.
   **   ~~~   ** Demand-to-Supply interface energy check value iteration history trace: 1211.876922,1211.876922,1211.876922,1211.876922,1211.876922,1211.876922,1211.876922,1211.876922,1211.876921,1211.876921,
   **   ~~~   ** Supply-to-demand interface deck 1 energy check value iteration history trace: 2165.060894,2165.060894,2165.060894,2165.060894,2165.060893,2165.060893,2165.060893,2165.060893,2165.060893,2165.060893,
   ** Warning ** SimHVAC: Maximum iterations (20) exceeded for all HVAC loops, at ANNUAL, 02/13 05:45 - 05:52
   **   ~~~   ** The solution for one or more of the Air Loop HVAC systems did not appear to converge
   **   ~~~   ** Air System Named = CENTRAL SYSTEM did not converge for mass flow rate
   **   ~~~   ** Check values should be zero. Most Recent values listed first.
   **   ~~~   ** Demand-to-Supply interface mass flow rate check value iteration history trace: 6.427094E-002,6.427094E-002,6.427094E-002,6.427094E-002,6.427094E-002,6.427094E-002,6.427094E-002,6.427094E-002,6.427094E-002,6.427094E-002,
   **   ~~~   ** Supply-to-demand interface deck 1 mass flow rate check value iteration history trace: 6.427094E-002,6.427094E-002,6.427094E-002,6.427094E-002,6.427094E-002,6.427094E-002,6.427094E-002,6.427094E-002,6.427094E-002,6.427094E-002,
   **   ~~~   ** Air System Named = CENTRAL SYSTEM did not converge for energy
   **   ~~~   ** Check values should be zero. Most Recent values listed first.
   **   ~~~   ** Demand-to-Supply interface energy check value iteration history trace: 1274.457883,1274.457883,1274.457883,1274.457883,1274.457883,1274.457883,1274.457883,1274.457883,1274.457883,1274.457883,
   **   ~~~   ** Supply-to-demand interface deck 1 energy check value iteration history trace: 2210.864855,2210.864855,2210.864855,2210.864854,2210.864854,2210.864854,2210.864854,2210.864854,2210.864854,2210.864854,
   ** Warning ** SimHVAC: Maximum iterations (20) exceeded for all HVAC loops, at ANNUAL, 02/20 08:30 - 08:32
   **   ~~~   ** The solution for one or more of the Air Loop HVAC systems did not appear to converge
   **   ~~~   ** Air System Named = CENTRAL SYSTEM did not converge for mass flow rate
   **   ~~~   ** Check values should be zero. Most Recent values listed first.
   **   ~~~   ** Demand-to-Supply interface mass flow rate check value iteration history trace: 5.775253E-002,5.775253E-002,5.775253E-002,5.775253E-002,5.775253E-002,5.775253E-002,5.775253E-002,5.775253E-002,5.775253E-002,5.775253E-002,
   **   ~~~   ** Supply-to-demand interface deck 1 mass flow rate check value iteration history trace: 5.775253E-002,5.775253E-002,5.775253E-002,5.775253E-002,5.775253E-002,5.775253E-002,5.775253E-002,5.775253E-002,5.775253E-002,5.775253E-002,
   **   ~~~   ** Air System Named = CENTRAL SYSTEM did not converge for energy
   **   ~~~   ** Check values should be zero. Most Recent values listed first.
   **   ~~~   ** Demand-to-Supply interface energy check value iteration history trace: 1141.317051,1141.317051,1141.317051,1141.317051,1141.317051,1141.317051,1141.317051,1141.317051,1141.317051,1141.317051,
   **   ~~~   ** Supply-to-demand interface deck 1 energy check value iteration history trace: 1934.028169,1934.028169,1934.028169,1934.028169,1934.028168,1934.028168,1934.028168,1934.028168,1934.028168,1934.028168,
   ** Warning ** SimHVAC: Maximum iterations (20) exceeded for all HVAC loops, at ANNUAL, 04/07 13:35 - 13:40
   **   ~~~   ** The solution for one or more of the Air Loop HVAC systems did not appear to converge
   **   ~~~   ** Air System Named = CENTRAL SYSTEM did not converge for mass flow rate
   **   ~~~   ** Check values should be zero. Most Recent values listed first.
   **   ~~~   ** Demand-to-Supply interface mass flow rate check value iteration history trace: 0.219727,0.219727,0.219727,0.219727,0.219727,0.219727,0.219727,0.219727,0.219727,0.219727,
   **   ~~~   ** Supply-to-demand interface deck 1 mass flow rate check value iteration history trace: 0.219727,0.219727,0.219727,0.219727,0.219727,0.219727,0.219727,0.219727,0.219727,0.219727,
   **   ~~~   ** Air System Named = CENTRAL SYSTEM did not converge for energy
   **   ~~~   ** Check values should be zero. Most Recent values listed first.
   **   ~~~   ** Demand-to-Supply interface energy check value iteration history trace: 5227.425748,5227.425748,5227.425749,5227.425749,5227.425749,5227.425750,5227.425750,5227.425750,5227.425750,5227.425751,
   **   ~~~   ** Supply-to-demand interface deck 1 energy check value iteration history trace: 2067.122128,2067.122128,2067.122129,2067.122129,2067.122129,2067.122129,2067.122129,2067.122129,2067.122129,2067.122129,
   ** Warning ** SimHVAC: Maximum iterations (20) exceeded for all HVAC loops, at ANNUAL, 11/27 13:08 - 13:15
   **   ~~~   ** The solution for one or more of the Air Loop HVAC systems did not appear to converge
   **   ~~~   ** Air System Named = CENTRAL SYSTEM did not converge for mass flow rate
   **   ~~~   ** Check values should be zero. Most Recent values listed first.
   **   ~~~   ** Demand-to-Supply interface mass flow rate check value iteration history trace: 0.207248,0.207248,0.207248,0.207248,0.207248,0.207248,0.207248,0.207248,0.207248,0.207248,
   **   ~~~   ** Supply-to-demand interface deck 1 mass flow rate check value iteration history trace: 0.207248,0.207248,0.207248,0.207248,0.207248,0.207248,0.207248,0.207248,0.207248,0.207248,
   **   ~~~   ** Air System Named = CENTRAL SYSTEM did not converge for energy
   **   ~~~   ** Check values should be zero. Most Recent values listed first.
   **   ~~~   ** Demand-to-Supply interface energy check value iteration history trace: 4975.202878,4975.202878,4975.202879,4975.202879,4975.202879,4975.202879,4975.202880,4975.202880,4975.202880,4975.202880,
   **   ~~~   ** Supply-to-demand interface deck 1 energy check value iteration history trace: 2004.753257,2004.753257,2004.753258,2004.753258,2004.753258,2004.753258,2004.753258,2004.753258,2004.753258,2004.753258,
   ** Warning ** SimHVAC: Maximum iterations (20) exceeded for all HVAC loops, at ANNUAL, 12/11 19:15 - 19:22
   **   ~~~   ** The solution for one or more of the Air Loop HVAC systems did not appear to converge
   **   ~~~   ** Air System Named = CENTRAL SYSTEM did not converge for mass flow rate
   **   ~~~   ** Check values should be zero. Most Recent values listed first.
   **   ~~~   ** Demand-to-Supply interface mass flow rate check value iteration history trace: 6.634754E-002,6.634754E-002,6.634754E-002,6.634754E-002,6.634754E-002,6.634754E-002,6.634754E-002,6.634754E-002,6.634754E-002,6.634754E-002,
   **   ~~~   ** Supply-to-demand interface deck 1 mass flow rate check value iteration history trace: 6.634754E-002,6.634754E-002,6.634754E-002,6.634754E-002,6.634754E-002,6.634754E-002,6.634754E-002,6.634754E-002,6.634754E-002,6.634754E-002,
   **   ~~~   ** Air System Named = CENTRAL SYSTEM did not converge for energy
   **   ~~~   ** Check values should be zero. Most Recent values listed first.
   **   ~~~   ** Demand-to-Supply interface energy check value iteration history trace: 1312.201376,1312.201376,1312.201376,1312.201376,1312.201376,1312.201376,1312.201376,1312.201376,1312.201376,1312.201375,
   **   ~~~   ** Supply-to-demand interface deck 1 energy check value iteration history trace: 2281.989558,2281.989558,2281.989558,2281.989558,2281.989558,2281.989558,2281.989558,2281.989558,2281.989557,2281.989557,
   ************* Simulation Error Summary *************
   ** Warning ** The following Report Variables were requested but not generated -- check.rdd file
   **   ~~~   ** Either the IDF did not contain these elements, the variable name is misspelled,
   **   ~~~   ** or the requested variable is an advanced output which requires Output : Diagnostics, DisplayAdvancedReportVariables;
   ************* Key=*, VarName=BASEBOARD TOTAL HEATING ENERGY, Frequency=
   ************* Key=*, VarName=WATER HEATER NATURALGAS ENERGY, Frequency=
   ************* Key=*, VarName=COOLING COIL TOTAL HEATING ENERGY, Frequency=
   ************* There are 34 unused schedules in input.
   ************* There are 388 unused week schedules in input.
   ************* There are 396 unused day schedules in input.
   ************* Use Output:Diagnostics,DisplayUnusedSchedules; to see them.
   *************
   ************* ===== Recurring Error Summary =====
   ************* The following recurring error messages occurred.
   *************
   *************  ** Warning ** "TOTAL HOT WATER LOAD" - Target water temperature should be less than or equal to the hot water temperature error continues...
   *************  **   ~~~   **   This error occurred 70451 total times;
   *************  **   ~~~   **   during Warmup 0 times;
   *************  **   ~~~   **   during Sizing 0 times.
   *************  **   ~~~   **   Max=6.509077  Min=2.760064E-003
   *************
   *************
   ************* ===== Final Error Summary =====
   ************* The following error categories occurred.  Consider correcting or noting.
   ************* Nominally Unused Constructions
   ************* ..The nominally unused constructions warning is provided to alert you to potential conditions that can cause
   ************* ..extra time during simulation. Each construction is calculated by the algorithm indicated in the HeatBalanceAlgorithm
   ************* ..object. You may remove the constructions indicated (when you use the DisplayExtraWarnings option).
   *************
   ************* EnergyPlus Warmup Error Summary. During Warmup: 1 Warning; 0 Severe Errors.
   ************* EnergyPlus Sizing Error Summary. During Sizing: 4 Warning; 0 Severe Errors.
   ************* EnergyPlus Completed Successfully-- 70480 Warning; 0 Severe Errors; Elapsed Time=00hr 01min 36.97sec
