Program Version,EnergyPlus, Version 22.2.0-c249759bad, YMD=2023.09.01 20:04,
   ************* Beginning Zone Sizing Calculations
   ** Warning ** ProcessScheduleInput: Schedule:Constant="ALWAYS ON DISCRETE", Schedule Type Limits Name="ONOFF" not found -- will not be validated
   ** Warning ** Foundation:Kiva="KIVA FOUNDATION", no Interior Horizontal Insulation Material Name defined
   **   ~~~   ** Interior Horizontal Insulation Depth will not be used.
   ** Warning ** CheckUsedConstructions: There are 15 nominally unused constructions in input.
   **   ~~~   ** Each Unused construction is shown.
   ************* Construction=INTERIOR FLOOR
   ************* Construction=INTERIOR WINDOW
   ************* Construction=EXTERIOR DOOR
   ************* Construction=INTERIOR DOOR
   ************* Construction=GABLE CONSTRUCTION
   ************* Construction=CRAWL_FLOOR
   ************* Construction=INSULATED PIPE
   ************* Construction=PLAIN PIPE
   ************* Construction=TDD PIPE
   ************* Construction=TDD DOME
   ************* Construction=TDD DIFFUSER
   ************* Construction=CRAWL WALL
   ************* Construction=CEILING-FLOOR-LAYER
   ************* Construction=SLAB CONSTRUCTION W FULL R10 INSULATION
   ************* Construction=SLAB CONSTRUCTION W FULL R5 INSULATION
   ** Warning ** GetDXCoils: Coil:Heating:DX:SingleSpeed="DX_HEATING_COIL" curve values
   **   ~~~   ** ... Defrost Energy Input Ratio Function of Temperature Curve Name = DEFROSTEIR output is not equal to 1.0 (+ or - 10%) at rated conditions.
   **   ~~~   ** ... Curve output at rated conditions = 0.152
   ************* Beginning System Sizing Calculations
   ************* Beginning Plant Sizing Calculations
   ** Warning ** SizeDXCoil Coil:Cooling:DX:SingleSpeed DX_COOLING_COIL
   **   ~~~   ** ...Gross Rated Total Cooling Capacity [W] will be limited by the maximum rated volume flow per rated total capacity ratio.
   **   ~~~   ** ...DX coil volume flow rate ( m3/s ) = 0.301029
   **   ~~~   ** ...Requested capacity ( W ) = 4495.798
   **   ~~~   ** ...Requested flow/capacity ratio ( m3/s/W ) = 6.695E-005
   **   ~~~   ** ...Maximum flow/capacity ratio ( m3/s/W ) = 6.041E-005
   **   ~~~   ** ...Adjusted capacity ( W ) = 4983.113
   ** Warning ** Coil:WaterHeating:AirToWaterHeatPump:Wrapped "HEAT PUMP WATER HEATER EVAPORATOR": Rated air volume flow rate per watt of rated total water heating capacity is out of range
   **   ~~~   ** Min Rated Vol Flow Per Watt=[4.027E-005], Rated Vol Flow Per Watt=[1.510E-004], Max Rated Vol Flow Per Watt=[8.056E-005]. See Input-Output Reference Manual for valid range.
   ************* SizeFan: : Potential issue with equipment sizing for Fan:OnOff HEAT PUMP WATER HEATER FAN
   **   ~~~   ** User-Specified Maximum Flow Rate [m3/s] = 0.22653
   **   ~~~   ** differs from Design Size Maximum Flow Rate [m3/s] = 7.55250E-002
   **   ~~~   ** This may, or may not, indicate mismatched component sizes.
   **   ~~~   ** Verify that the value entered is intended and is consistent with other components.
   ** Warning ** Water heater = WATER HEATER TANK:  Recovery Efficiency and Energy Factor could not be calculated during the test for standard ratings
   **   ~~~   ** Setpoint was never recovered and/or heater never turned on
   ** Warning ** Check input. Pump nominal power or motor efficiency is set to 0, for pump=MAINS PRESSURE
   ** Warning ** AirflowNetwork::Solver::validate_distribution: Heat pump water heater is simulated along with an AirflowNetwork but is not included in the AirflowNetwork.
   ** Warning ** Output:Meter: invalid Key Name="ELECTRIC_RANGE:INTERIOREQUIPMENT:ELECTRICITY" - not found.
   ** Warning ** Output:Meter: invalid Key Name="ELECTRIC_DRYER:INTERIOREQUIPMENT:ELECTRICITY" - not found.
   ** Warning ** Output:Meter: invalid Key Name="HEATRECOVERY:ELECTRICITY" - not found.
   ** Warning ** Output:Meter: invalid Key Name="HEATING:NATURALGAS" - not found.
   ** Warning ** Output:Meter: invalid Key Name="WATERSYSTEMS:NATURALGAS" - not found.
   ** Warning ** Output:Meter: invalid Key Name="PROPANE:FACILITY" - not found.
   ** Warning ** Output:Meter: invalid Key Name="HEATING:PROPANE" - not found.
   ************* Testing Individual Branch Integrity
   ************* All Branches passed integrity testing
   ************* Testing Individual Supply Air Path Integrity
   ************* All Supply Air Paths passed integrity testing
   ************* Testing Individual Return Air Path Integrity
   ************* All Return Air Paths passed integrity testing
   ************* No node connection errors were found.
   ************* Beginning Simulation
   ** Warning ** CalcEquipmentFlowRates: "TOTAL HOT WATER LOAD" - Target water temperature is greater than the hot water temperature by (4.41 C)
   **   ~~~   **  Environment=EXTREME_WINTER, at Simulation time=12/22 07:00 - 07:15
   **   ~~~   ** ...target water temperature     = 53.33 C
   **   ~~~   ** ...hot water temperature        = 48.92 C
   **   ~~~   ** ...Target water temperature should be less than or equal to the hot water temperature. Verify temperature setpoints and schedules.
   ** Warning ** SimHVAC: Maximum iterations (20) exceeded for all HVAC loops, at ANNUAL, 02/14 15:58 - 16:00
   **   ~~~   ** The solution for one or more of the Air Loop HVAC systems did not appear to converge
   **   ~~~   ** Air System Named = CENTRAL SYSTEM did not converge for mass flow rate
   **   ~~~   ** Check values should be zero. Most Recent values listed first.
   **   ~~~   ** Demand-to-Supply interface mass flow rate check value iteration history trace: 7.878138E-002,7.878138E-002,7.878138E-002,7.878138E-002,7.878138E-002,7.878138E-002,7.878138E-002,7.878138E-002,7.878138E-002,7.878138E-002,
   **   ~~~   ** Supply-to-demand interface deck 1 mass flow rate check value iteration history trace: 7.878138E-002,7.878138E-002,7.878138E-002,7.878138E-002,7.878138E-002,7.878138E-002,7.878138E-002,7.878138E-002,7.878138E-002,7.878138E-002,
   **   ~~~   ** Air System Named = CENTRAL SYSTEM did not converge for energy
   **   ~~~   ** Check values should be zero. Most Recent values listed first.
   **   ~~~   ** Demand-to-Supply interface energy check value iteration history trace: 1559.439185,1559.439185,1559.439185,1559.439185,1559.439184,1559.439184,1559.439184,1559.439184,1559.439184,1559.439184,
   **   ~~~   ** Supply-to-demand interface deck 1 energy check value iteration history trace: 2274.179792,2274.179792,2274.179791,2274.179791,2274.179791,2274.179791,2274.179791,2274.179790,2274.179790,2274.179790,
   ** Warning ** SimHVAC: Maximum iterations (20) exceeded for all HVAC loops, at ANNUAL, 03/10 12:00 - 12:08
   **   ~~~   ** The solution for one or more of the Air Loop HVAC systems did not appear to converge
   **   ~~~   ** Air System Named = CENTRAL SYSTEM did not converge for mass flow rate
   **   ~~~   ** Check values should be zero. Most Recent values listed first.
   **   ~~~   ** Demand-to-Supply interface mass flow rate check value iteration history trace: 9.804994E-002,9.804994E-002,9.804994E-002,9.804994E-002,9.804994E-002,9.804994E-002,9.804994E-002,9.804994E-002,9.804994E-002,9.804994E-002,
   **   ~~~   ** Supply-to-demand interface deck 1 mass flow rate check value iteration history trace: 9.804994E-002,9.804994E-002,9.804994E-002,9.804994E-002,9.804994E-002,9.804994E-002,9.804994E-002,9.804994E-002,9.804994E-002,9.804994E-002,
   **   ~~~   ** Air System Named = CENTRAL SYSTEM did not converge for energy
   **   ~~~   ** Check values should be zero. Most Recent values listed first.
   **   ~~~   ** Demand-to-Supply interface energy check value iteration history trace: 1943.089798,1943.089798,1943.089798,1943.089798,1943.089798,1943.089798,1943.089797,1943.089797,1943.089797,1943.089797,
   **   ~~~   ** Supply-to-demand interface deck 1 energy check value iteration history trace: 2950.310577,2950.310577,2950.310577,2950.310576,2950.310576,2950.310576,2950.310576,2950.310576,2950.310575,2950.310575,
   ** Warning ** SimHVAC: Maximum iterations (20) exceeded for all HVAC loops, at ANNUAL, 03/14 13:49 - 13:52
   **   ~~~   ** The solution for one or more of the Air Loop HVAC systems did not appear to converge
   **   ~~~   ** Air System Named = CENTRAL SYSTEM did not converge for mass flow rate
   **   ~~~   ** Check values should be zero. Most Recent values listed first.
   **   ~~~   ** Demand-to-Supply interface mass flow rate check value iteration history trace: 8.078993E-002,8.078993E-002,8.078993E-002,8.078993E-002,8.078993E-002,8.078993E-002,8.078993E-002,8.078993E-002,8.078993E-002,8.078993E-002,
   **   ~~~   ** Supply-to-demand interface deck 1 mass flow rate check value iteration history trace: 8.078993E-002,8.078993E-002,8.078993E-002,8.078993E-002,8.078993E-002,8.078993E-002,8.078993E-002,8.078993E-002,8.078993E-002,8.078993E-002,
   **   ~~~   ** Air System Named = CENTRAL SYSTEM did not converge for energy
   **   ~~~   ** Check values should be zero. Most Recent values listed first.
   **   ~~~   ** Demand-to-Supply interface energy check value iteration history trace: 1594.915793,1594.915793,1594.915793,1594.915793,1594.915793,1594.915793,1594.915793,1594.915793,1594.915793,1594.915792,
   **   ~~~   ** Supply-to-demand interface deck 1 energy check value iteration history trace: 2461.927553,2461.927553,2461.927552,2461.927552,2461.927552,2461.927552,2461.927552,2461.927552,2461.927551,2461.927551,
   ** Warning ** SimHVAC: Maximum iterations (20) exceeded for all HVAC loops, at ANNUAL, 03/20 17:21 - 17:24
   **   ~~~   ** The solution for one or more of the Air Loop HVAC systems did not appear to converge
   **   ~~~   ** Air System Named = CENTRAL SYSTEM did not converge for mass flow rate
   **   ~~~   ** Check values should be zero. Most Recent values listed first.
   **   ~~~   ** Demand-to-Supply interface mass flow rate check value iteration history trace: 9.728994E-002,9.728994E-002,9.728994E-002,9.728994E-002,9.728994E-002,9.728994E-002,9.728994E-002,9.728994E-002,9.728994E-002,9.728994E-002,
   **   ~~~   ** Supply-to-demand interface deck 1 mass flow rate check value iteration history trace: 9.728994E-002,9.728994E-002,9.728994E-002,9.728994E-002,9.728994E-002,9.728994E-002,9.728994E-002,9.728994E-002,9.728994E-002,9.728994E-002,
   **   ~~~   ** Air System Named = CENTRAL SYSTEM did not converge for energy
   **   ~~~   ** Check values should be zero. Most Recent values listed first.
   **   ~~~   ** Demand-to-Supply interface energy check value iteration history trace: 1927.537811,1927.537811,1927.537811,1927.537811,1927.537811,1927.537810,1927.537810,1927.537810,1927.537810,1927.537810,
   **   ~~~   ** Supply-to-demand interface deck 1 energy check value iteration history trace: 2866.413226,2866.413226,2866.413226,2866.413226,2866.413225,2866.413225,2866.413225,2866.413225,2866.413225,2866.413224,
   ** Warning ** Temperature out of range [-100. to 200.] (PsyPsatFnTemp)
   **   ~~~   **  Routine=PsyTwbFnTdbWPb, Environment=ANNUAL, at Simulation time=03/26 18:00 - 18:04
   **   ~~~   **  Input Temperature=-1469.43
   ** Warning ** SimHVAC: Maximum iterations (20) exceeded for all HVAC loops, at ANNUAL, 04/14 13:30 - 13:38
   **   ~~~   ** The solution for one or more of the Air Loop HVAC systems did not appear to converge
   **   ~~~   ** Air System Named = CENTRAL SYSTEM did not converge for mass flow rate
   **   ~~~   ** Check values should be zero. Most Recent values listed first.
   **   ~~~   ** Demand-to-Supply interface mass flow rate check value iteration history trace: 8.573431E-002,8.573431E-002,8.573431E-002,8.573431E-002,8.573431E-002,8.573431E-002,8.573431E-002,8.573431E-002,8.573431E-002,8.573431E-002,
   **   ~~~   ** Supply-to-demand interface deck 1 mass flow rate check value iteration history trace: 8.573431E-002,8.573431E-002,8.573431E-002,8.573431E-002,8.573431E-002,8.573431E-002,8.573431E-002,8.573431E-002,8.573431E-002,8.573431E-002,
   **   ~~~   ** Air System Named = CENTRAL SYSTEM did not converge for energy
   **   ~~~   ** Check values should be zero. Most Recent values listed first.
   **   ~~~   ** Demand-to-Supply interface energy check value iteration history trace: 1700.631577,1700.631577,1700.631577,1700.631577,1700.631577,1700.631577,1700.631577,1700.631577,1700.631576,1700.631576,
   **   ~~~   ** Supply-to-demand interface deck 1 energy check value iteration history trace: 2564.445526,2564.445526,2564.445526,2564.445526,2564.445526,2564.445525,2564.445525,2564.445525,2564.445525,2564.445525,
   ** Warning ** SimHVAC: Maximum iterations (20) exceeded for all HVAC loops, at ANNUAL, 04/19 10:33 - 10:36
   **   ~~~   ** The solution for one or more of the Air Loop HVAC systems did not appear to converge
   **   ~~~   ** Air System Named = CENTRAL SYSTEM did not converge for mass flow rate
   **   ~~~   ** Check values should be zero. Most Recent values listed first.
   **   ~~~   ** Demand-to-Supply interface mass flow rate check value iteration history trace: 7.376838E-002,7.376838E-002,7.376838E-002,7.376838E-002,7.376838E-002,7.376838E-002,7.376838E-002,7.376838E-002,7.376838E-002,7.376838E-002,
   **   ~~~   ** Supply-to-demand interface deck 1 mass flow rate check value iteration history trace: 7.376838E-002,7.376838E-002,7.376838E-002,7.376838E-002,7.376838E-002,7.376838E-002,7.376838E-002,7.376838E-002,7.376838E-002,7.376838E-002,
   **   ~~~   ** Air System Named = CENTRAL SYSTEM did not converge for energy
   **   ~~~   ** Check values should be zero. Most Recent values listed first.
   **   ~~~   ** Demand-to-Supply interface energy check value iteration history trace: 1453.569110,1453.569110,1453.569110,1453.569110,1453.569110,1453.569110,1453.569110,1453.569110,1453.569109,1453.569109,
   **   ~~~   ** Supply-to-demand interface deck 1 energy check value iteration history trace: 2553.887120,2553.887120,2553.887120,2553.887120,2553.887120,2553.887120,2553.887120,2553.887119,2553.887119,2553.887119,
   ** Warning ** SimHVAC: Maximum iterations (20) exceeded for all HVAC loops, at ANNUAL, 04/25 14:30 - 14:45
   **   ~~~   ** The solution for one or more of the Air Loop HVAC systems did not appear to converge
   **   ~~~   ** Air System Named = CENTRAL SYSTEM did not converge for mass flow rate
   **   ~~~   ** Check values should be zero. Most Recent values listed first.
   **   ~~~   ** Demand-to-Supply interface mass flow rate check value iteration history trace: 6.489445E-002,6.489445E-002,6.489445E-002,6.489445E-002,6.489445E-002,6.489445E-002,6.489445E-002,6.489445E-002,6.489445E-002,6.489445E-002,
   **   ~~~   ** Supply-to-demand interface deck 1 mass flow rate check value iteration history trace: 6.489445E-002,6.489445E-002,6.489445E-002,6.489445E-002,6.489445E-002,6.489445E-002,6.489445E-002,6.489445E-002,6.489445E-002,6.489445E-002,
   **   ~~~   ** Air System Named = CENTRAL SYSTEM did not converge for energy
   **   ~~~   ** Check values should be zero. Most Recent values listed first.
   **   ~~~   ** Demand-to-Supply interface energy check value iteration history trace: 1284.083195,1284.083195,1284.083195,1284.083195,1284.083195,1284.083195,1284.083195,1284.083195,1284.083195,1284.083195,
   **   ~~~   ** Supply-to-demand interface deck 1 energy check value iteration history trace: 2156.740425,2156.740425,2156.740425,2156.740425,2156.740425,2156.740425,2156.740424,2156.740424,2156.740424,2156.740424,
   ** Warning ** SimHVAC: Maximum iterations (20) exceeded for all HVAC loops, at ANNUAL, 05/07 00:30 - 00:45
   **   ~~~   ** The solution for one or more of the Air Loop HVAC systems did not appear to converge
   **   ~~~   ** Air System Named = CENTRAL SYSTEM did not converge for mass flow rate
   **   ~~~   ** Check values should be zero. Most Recent values listed first.
   **   ~~~   ** Demand-to-Supply interface mass flow rate check value iteration history trace: 8.245952E-002,8.245952E-002,8.245952E-002,8.245952E-002,8.245952E-002,8.245952E-002,8.245952E-002,8.245952E-002,8.245952E-002,8.245952E-002,
   **   ~~~   ** Supply-to-demand interface deck 1 mass flow rate check value iteration history trace: 8.245952E-002,8.245952E-002,8.245952E-002,8.245952E-002,8.245952E-002,8.245952E-002,8.245952E-002,8.245952E-002,8.245952E-002,8.245952E-002,
   **   ~~~   ** Air System Named = CENTRAL SYSTEM did not converge for energy
   **   ~~~   ** Check values should be zero. Most Recent values listed first.
   **   ~~~   ** Demand-to-Supply interface energy check value iteration history trace: 1540.617317,1540.617316,1540.617316,1540.617316,1540.617316,1540.617316,1540.617316,1540.617316,1540.617316,1540.617316,
   **   ~~~   ** Supply-to-demand interface deck 1 energy check value iteration history trace: 2360.111851,2360.111851,2360.111851,2360.111850,2360.111850,2360.111850,2360.111850,2360.111850,2360.111850,2360.111849,
   ** Warning ** SimHVAC: Maximum iterations (20) exceeded for all HVAC loops, at ANNUAL, 05/31 10:15 - 10:19
   **   ~~~   ** The solution for one or more of the Air Loop HVAC systems did not appear to converge
   **   ~~~   ** Air System Named = CENTRAL SYSTEM did not converge for mass flow rate
   **   ~~~   ** Check values should be zero. Most Recent values listed first.
   **   ~~~   ** Demand-to-Supply interface mass flow rate check value iteration history trace: 7.081735E-002,7.081735E-002,7.081735E-002,7.081735E-002,7.081735E-002,7.081735E-002,7.081735E-002,7.081735E-002,7.081735E-002,7.081735E-002,
   **   ~~~   ** Supply-to-demand interface deck 1 mass flow rate check value iteration history trace: 7.081735E-002,7.081735E-002,7.081735E-002,7.081735E-002,7.081735E-002,7.081735E-002,7.081735E-002,7.081735E-002,7.081735E-002,7.081735E-002,
   **   ~~~   ** Air System Named = CENTRAL SYSTEM did not converge for energy
   **   ~~~   ** Check values should be zero. Most Recent values listed first.
   **   ~~~   ** Demand-to-Supply interface energy check value iteration history trace: 1403.289203,1403.289203,1403.289203,1403.289203,1403.289203,1403.289203,1403.289203,1403.289203,1403.289203,1403.289203,
   **   ~~~   ** Supply-to-demand interface deck 1 energy check value iteration history trace: 2437.476905,2437.476905,2437.476905,2437.476904,2437.476904,2437.476904,2437.476904,2437.476904,2437.476904,2437.476904,
   ** Warning ** SimHVAC: Maximum iterations (20) exceeded for all HVAC loops, at ANNUAL, 06/07 06:00 - 06:08
   **   ~~~   ** The solution for one or more of the Air Loop HVAC systems did not appear to converge
   **   ~~~   ** Air System Named = CENTRAL SYSTEM did not converge for mass flow rate
   **   ~~~   ** Check values should be zero. Most Recent values listed first.
   **   ~~~   ** Demand-to-Supply interface mass flow rate check value iteration history trace: 5.641386E-002,5.641386E-002,5.641386E-002,5.641386E-002,5.641386E-002,5.641386E-002,5.641386E-002,5.641386E-002,5.641386E-002,5.641386E-002,
   **   ~~~   ** Supply-to-demand interface deck 1 mass flow rate check value iteration history trace: 5.641386E-002,5.641386E-002,5.641386E-002,5.641386E-002,5.641386E-002,5.641386E-002,5.641386E-002,5.641386E-002,5.641386E-002,5.641386E-002,
   **   ~~~   ** Air System Named = CENTRAL SYSTEM did not converge for energy
   **   ~~~   ** Check values should be zero. Most Recent values listed first.
   **   ~~~   ** Demand-to-Supply interface energy check value iteration history trace: 1117.893559,1117.893559,1117.893559,1117.893559,1117.893559,1117.893559,1117.893559,1117.893559,1117.893559,1117.893559,
   **   ~~~   ** Supply-to-demand interface deck 1 energy check value iteration history trace: 1941.115870,1941.115870,1941.115870,1941.115870,1941.115870,1941.115870,1941.115869,1941.115869,1941.115869,1941.115869,
   ** Warning ** SimHVAC: Maximum iterations (20) exceeded for all HVAC loops, at ANNUAL, 07/17 23:15 - 23:30
   **   ~~~   ** The solution for one or more of the Air Loop HVAC systems did not appear to converge
   **   ~~~   ** Air System Named = CENTRAL SYSTEM did not converge for mass flow rate
   **   ~~~   ** Check values should be zero. Most Recent values listed first.
   **   ~~~   ** Demand-to-Supply interface mass flow rate check value iteration history trace: 4.751821E-002,4.751821E-002,4.751821E-002,4.751821E-002,4.751821E-002,4.751821E-002,4.751821E-002,4.751821E-002,4.751821E-002,4.751821E-002,
   **   ~~~   ** Supply-to-demand interface deck 1 mass flow rate check value iteration history trace: 4.751821E-002,4.751821E-002,4.751821E-002,4.751821E-002,4.751821E-002,4.751821E-002,4.751821E-002,4.751821E-002,4.751821E-002,4.751821E-002,
   **   ~~~   ** Air System Named = CENTRAL SYSTEM did not converge for energy
   **   ~~~   ** Check values should be zero. Most Recent values listed first.
   **   ~~~   ** Demand-to-Supply interface energy check value iteration history trace: 1164.685738,1164.685739,1164.685739,1164.685739,1164.685740,1164.685740,1164.685740,1164.685741,1164.685741,1164.685741,
   **   ~~~   ** Supply-to-demand interface deck 1 energy check value iteration history trace: 574.385761,574.385761,574.385762,574.385762,574.385762,574.385762,574.385762,574.385762,574.385763,574.385763,
   ** Warning ** SimHVAC: Maximum iterations (20) exceeded for all HVAC loops, at ANNUAL, 07/20 23:23 - 23:30
   **   ~~~   ** The solution for one or more of the Air Loop HVAC systems did not appear to converge
   **   ~~~   ** Air System Named = CENTRAL SYSTEM did not converge for mass flow rate
   **   ~~~   ** Check values should be zero. Most Recent values listed first.
   **   ~~~   ** Demand-to-Supply interface mass flow rate check value iteration history trace: 8.761705E-002,8.761705E-002,8.761705E-002,8.761705E-002,8.761705E-002,8.761705E-002,8.761705E-002,8.761705E-002,8.761705E-002,8.761705E-002,
   **   ~~~   ** Supply-to-demand interface deck 1 mass flow rate check value iteration history trace: 8.761705E-002,8.761705E-002,8.761705E-002,8.761705E-002,8.761705E-002,8.761705E-002,8.761705E-002,8.761705E-002,8.761705E-002,8.761705E-002,
   **   ~~~   ** Air System Named = CENTRAL SYSTEM did not converge for energy
   **   ~~~   ** Check values should be zero. Most Recent values listed first.
   **   ~~~   ** Demand-to-Supply interface energy check value iteration history trace: 2153.074926,2153.074926,2153.074927,2153.074927,2153.074928,2153.074928,2153.074929,2153.074930,2153.074930,2153.074931,
   **   ~~~   ** Supply-to-demand interface deck 1 energy check value iteration history trace: 1102.347634,1102.347634,1102.347634,1102.347635,1102.347635,1102.347635,1102.347636,1102.347636,1102.347636,1102.347636,
   ** Warning ** SimHVAC: Maximum iterations (20) exceeded for all HVAC loops, at ANNUAL, 07/23 23:30 - 23:45
   **   ~~~   ** The solution for one or more of the Air Loop HVAC systems did not appear to converge
   **   ~~~   ** Air System Named = CENTRAL SYSTEM did not converge for mass flow rate
   **   ~~~   ** Check values should be zero. Most Recent values listed first.
   **   ~~~   ** Demand-to-Supply interface mass flow rate check value iteration history trace: 9.840210E-002,9.840210E-002,9.840210E-002,9.840210E-002,9.840210E-002,9.840210E-002,9.840210E-002,9.840210E-002,9.840210E-002,9.840210E-002,
   **   ~~~   ** Supply-to-demand interface deck 1 mass flow rate check value iteration history trace: 9.840210E-002,9.840210E-002,9.840210E-002,9.840210E-002,9.840210E-002,9.840210E-002,9.840210E-002,9.840210E-002,9.840210E-002,9.840210E-002,
   **   ~~~   ** Air System Named = CENTRAL SYSTEM did not converge for energy
   **   ~~~   ** Check values should be zero. Most Recent values listed first.
   **   ~~~   ** Demand-to-Supply interface energy check value iteration history trace: 2459.735423,2459.735423,2459.735424,2459.735424,2459.735425,2459.735425,2459.735426,2459.735427,2459.735427,2459.735428,
   **   ~~~   ** Supply-to-demand interface deck 1 energy check value iteration history trace: 1233.258154,1233.258155,1233.258155,1233.258155,1233.258156,1233.258156,1233.258156,1233.258156,1233.258157,1233.258157,
   ** Warning ** SimHVAC: Maximum iterations (20) exceeded for all HVAC loops, at ANNUAL, 07/30 09:43 - 09:45
   **   ~~~   ** The solution for one or more of the Air Loop HVAC systems did not appear to converge
   **   ~~~   ** Air System Named = CENTRAL SYSTEM did not converge for mass flow rate
   **   ~~~   ** Check values should be zero. Most Recent values listed first.
   **   ~~~   ** Demand-to-Supply interface mass flow rate check value iteration history trace: 0.129781,0.129781,0.129781,0.129781,0.129781,0.129781,0.129781,0.129781,0.129781,0.129781,
   **   ~~~   ** Supply-to-demand interface deck 1 mass flow rate check value iteration history trace: 0.129781,0.129781,0.129781,0.129781,0.129781,0.129781,0.129781,0.129781,0.129781,0.129781,
   **   ~~~   ** Air System Named = CENTRAL SYSTEM did not converge for energy
   **   ~~~   ** Check values should be zero. Most Recent values listed first.
   **   ~~~   ** Demand-to-Supply interface energy check value iteration history trace: 3062.813215,3062.813215,3062.813216,3062.813216,3062.813217,3062.813217,3062.813218,3062.813218,3062.813219,3062.813219,
   **   ~~~   ** Supply-to-demand interface deck 1 energy check value iteration history trace: 1735.805164,1735.805164,1735.805165,1735.805165,1735.805165,1735.805166,1735.805166,1735.805166,1735.805166,1735.805167,
   ************* Simulation Error Summary *************
   ** Warning ** The following Report Variables were requested but not generated -- check.rdd file
   **   ~~~   ** Either the IDF did not contain these elements, the variable name is misspelled,
   **   ~~~   ** or the requested variable is an advanced output which requires Output : Diagnostics, DisplayAdvancedReportVariables;
   ************* Key=*, VarName=BASEBOARD TOTAL HEATING ENERGY, Frequency=
   ************* Key=*, VarName=WATER HEATER NATURALGAS ENERGY, Frequency=
   ************* Key=*, VarName=COOLING COIL TOTAL HEATING ENERGY, Frequency=
   ************* There are 34 unused schedules in input.
   ************* There are 388 unused week schedules in input.
   ************* There are 396 unused day schedules in input.
   ************* Use Output:Diagnostics,DisplayUnusedSchedules; to see them.
   *************
   ************* ===== Recurring Error Summary =====
   ************* The following recurring error messages occurred.
   *************
   *************  ** Warning ** "TOTAL HOT WATER LOAD" - Target water temperature should be less than or equal to the hot water temperature error continues...
   *************  **   ~~~   **   This error occurred 142047 total times;
   *************  **   ~~~   **   during Warmup 0 times;
   *************  **   ~~~   **   during Sizing 0 times.
   *************  **   ~~~   **   Max=17.913015  Min=8.621118E-004
   *************
   *************  ** Warning ** Temperature out of range [-100. to 200.] (PsyPsatFnTemp)
   *************  **   ~~~   **   This error occurred 1 total times;
   *************  **   ~~~   **   during Warmup 0 times;
   *************  **   ~~~   **   during Sizing 0 times.
   *************  **   ~~~   **   Max=-1469.435303 C  Min=-1469.435303 C
   *************
   *************  ** Warning ** SimHVAC: Exceeding Maximum iterations for all HVAC loops, during ANNUAL continues
   *************  **   ~~~   **   This error occurred 17 total times;
   *************  **   ~~~   **   during Warmup 0 times;
   *************  **   ~~~   **   during Sizing 0 times.
   *************
   *************
   ************* ===== Final Error Summary =====
   ************* The following error categories occurred.  Consider correcting or noting.
   ************* Nominally Unused Constructions
   ************* ..The nominally unused constructions warning is provided to alert you to potential conditions that can cause
   ************* ..extra time during simulation. Each construction is calculated by the algorithm indicated in the HeatBalanceAlgorithm
   ************* ..object. You may remove the constructions indicated (when you use the DisplayExtraWarnings option).
   *************
   ************* EnergyPlus Warmup Error Summary. During Warmup: 0 Warning; 0 Severe Errors.
   ************* EnergyPlus Sizing Error Summary. During Sizing: 4 Warning; 0 Severe Errors.
   ************* EnergyPlus Completed Successfully-- 142097 Warning; 0 Severe Errors; Elapsed Time=00hr 01min 32.67sec
