Program Version,EnergyPlus, Version 22.2.0-c249759bad, YMD=2023.09.01 15:14,
   ************* Beginning Zone Sizing Calculations
   ** Warning ** ProcessScheduleInput: Schedule:Constant="ALWAYS ON DISCRETE", Schedule Type Limits Name="ONOFF" not found -- will not be validated
   ** Warning ** Foundation:Kiva="KIVA FOUNDATION", no Interior Horizontal Insulation Material Name defined
   **   ~~~   ** Interior Horizontal Insulation Depth will not be used.
   ** Warning ** CheckUsedConstructions: There are 15 nominally unused constructions in input.
   **   ~~~   ** Each Unused construction is shown.
   ************* Construction=INTERIOR FLOOR
   ************* Construction=INTERIOR WINDOW
   ************* Construction=EXTERIOR DOOR
   ************* Construction=INTERIOR DOOR
   ************* Construction=GABLE CONSTRUCTION
   ************* Construction=CRAWL_FLOOR
   ************* Construction=INSULATED PIPE
   ************* Construction=PLAIN PIPE
   ************* Construction=TDD PIPE
   ************* Construction=TDD DOME
   ************* Construction=TDD DIFFUSER
   ************* Construction=CRAWL WALL
   ************* Construction=CEILING-FLOOR-LAYER
   ************* Construction=SLAB CONSTRUCTION W FULL R10 INSULATION
   ************* Construction=SLAB CONSTRUCTION W FULL R5 INSULATION
   ** Warning ** GetDXCoils: Coil:Heating:DX:SingleSpeed="DX_HEATING_COIL" curve values
   **   ~~~   ** ... Defrost Energy Input Ratio Function of Temperature Curve Name = DEFROSTEIR output is not equal to 1.0 (+ or - 10%) at rated conditions.
   **   ~~~   ** ... Curve output at rated conditions = 0.152
   ************* Beginning System Sizing Calculations
   ************* Beginning Plant Sizing Calculations
   ** Warning ** Coil:WaterHeating:AirToWaterHeatPump:Wrapped "HEAT PUMP WATER HEATER EVAPORATOR": Rated air volume flow rate per watt of rated total water heating capacity is out of range
   **   ~~~   ** Min Rated Vol Flow Per Watt=[4.027E-005], Rated Vol Flow Per Watt=[1.386E-004], Max Rated Vol Flow Per Watt=[8.056E-005]. See Input-Output Reference Manual for valid range.
   ** Warning ** Water heater = WATER HEATER TANK:  Recovery Efficiency and Energy Factor could not be calculated during the test for standard ratings
   **   ~~~   ** Setpoint was never recovered and/or heater never turned on
   ** Warning ** Check input. Pump nominal power or motor efficiency is set to 0, for pump=MAINS PRESSURE
   ** Warning ** Output:Meter: invalid Key Name="ELECTRIC_RANGE:INTERIOREQUIPMENT:ELECTRICITY" - not found.
   ** Warning ** Output:Meter: invalid Key Name="ELECTRIC_DRYER:INTERIOREQUIPMENT:ELECTRICITY" - not found.
   ** Warning ** Output:Meter: invalid Key Name="HEATRECOVERY:ELECTRICITY" - not found.
   ** Warning ** Output:Meter: invalid Key Name="HEATING:NATURALGAS" - not found.
   ** Warning ** Output:Meter: invalid Key Name="WATERSYSTEMS:NATURALGAS" - not found.
   ** Warning ** Output:Meter: invalid Key Name="PROPANE:FACILITY" - not found.
   ** Warning ** Output:Meter: invalid Key Name="HEATING:PROPANE" - not found.
   ************* Testing Individual Branch Integrity
   ************* All Branches passed integrity testing
   ************* Testing Individual Supply Air Path Integrity
   ************* All Supply Air Paths passed integrity testing
   ************* Testing Individual Return Air Path Integrity
   ************* All Return Air Paths passed integrity testing
   ************* No node connection errors were found.
   ************* Beginning Simulation
   ** Warning ** AirflowNetwork::Solver::validate_distribution: Heat pump water heater is simulated along with an AirflowNetwork but is not included in the AirflowNetwork.
   ** Warning ** CalcEquipmentFlowRates: "TOTAL HOT WATER LOAD" - Target water temperature is greater than the hot water temperature by (1.66 C)
   **   ~~~   **  Environment=EXTREME_WINTER, at Simulation time=01/06 06:00 - 06:15
   **   ~~~   ** ...target water temperature     = 53.33 C
   **   ~~~   ** ...hot water temperature        = 51.67 C
   **   ~~~   ** ...Target water temperature should be less than or equal to the hot water temperature. Verify temperature setpoints and schedules.
   ** Warning ** SimHVAC: Maximum iterations (20) exceeded for all HVAC loops, at ANNUAL, 01/01 09:15 - 09:17
   **   ~~~   ** The solution for one or more of the Air Loop HVAC systems did not appear to converge
   **   ~~~   ** Air System Named = CENTRAL SYSTEM did not converge for mass flow rate
   **   ~~~   ** Check values should be zero. Most Recent values listed first.
   **   ~~~   ** Demand-to-Supply interface mass flow rate check value iteration history trace: 8.327851E-002,8.327851E-002,8.327851E-002,8.327851E-002,8.327851E-002,8.327851E-002,8.327851E-002,8.327851E-002,8.327851E-002,8.327851E-002,
   **   ~~~   ** Supply-to-demand interface deck 1 mass flow rate check value iteration history trace: 8.327851E-002,8.327851E-002,8.327851E-002,8.327851E-002,8.327851E-002,8.327851E-002,8.327851E-002,8.327851E-002,8.327851E-002,8.327851E-002,
   **   ~~~   ** Air System Named = CENTRAL SYSTEM did not converge for energy
   **   ~~~   ** Check values should be zero. Most Recent values listed first.
   **   ~~~   ** Demand-to-Supply interface energy check value iteration history trace: 1645.650102,1645.650102,1645.650102,1645.650102,1645.650102,1645.650102,1645.650102,1645.650102,1645.650102,1645.650102,
   **   ~~~   ** Supply-to-demand interface deck 1 energy check value iteration history trace: 2924.139704,2924.139704,2924.139704,2924.139704,2924.139703,2924.139703,2924.139703,2924.139703,2924.139703,2924.139703,
   ** Warning ** SimHVAC: Maximum iterations (20) exceeded for all HVAC loops, at ANNUAL, 01/03 08:45 - 09:00
   **   ~~~   ** The solution for one or more of the Air Loop HVAC systems did not appear to converge
   **   ~~~   ** Air System Named = CENTRAL SYSTEM did not converge for mass flow rate
   **   ~~~   ** Check values should be zero. Most Recent values listed first.
   **   ~~~   ** Demand-to-Supply interface mass flow rate check value iteration history trace: 4.019496E-002,4.019496E-002,4.019496E-002,4.019496E-002,4.019496E-002,4.019496E-002,4.019496E-002,4.019496E-002,4.019496E-002,4.019496E-002,
   **   ~~~   ** Supply-to-demand interface deck 1 mass flow rate check value iteration history trace: 4.019496E-002,4.019496E-002,4.019496E-002,4.019496E-002,4.019496E-002,4.019496E-002,4.019496E-002,4.019496E-002,4.019496E-002,4.019496E-002,
   **   ~~~   ** Air System Named = CENTRAL SYSTEM did not converge for energy
   **   ~~~   ** Check values should be zero. Most Recent values listed first.
   **   ~~~   ** Demand-to-Supply interface energy check value iteration history trace: 788.950367,788.950367,788.950367,788.950367,788.950367,788.950367,788.950367,788.950367,788.950367,788.950367,
   **   ~~~   ** Supply-to-demand interface deck 1 energy check value iteration history trace: 1509.626195,1509.626195,1509.626195,1509.626195,1509.626195,1509.626195,1509.626195,1509.626195,1509.626195,1509.626195,
   ** Warning ** SimHVAC: Maximum iterations (20) exceeded for all HVAC loops, at ANNUAL, 01/22 10:51 - 10:54
   **   ~~~   ** The solution for one or more of the Air Loop HVAC systems did not appear to converge
   **   ~~~   ** Air System Named = CENTRAL SYSTEM did not converge for mass flow rate
   **   ~~~   ** Check values should be zero. Most Recent values listed first.
   **   ~~~   ** Demand-to-Supply interface mass flow rate check value iteration history trace: 6.626880E-002,6.626880E-002,6.626880E-002,6.626880E-002,6.626880E-002,6.626880E-002,6.626880E-002,6.626880E-002,6.626880E-002,6.626880E-002,
   **   ~~~   ** Supply-to-demand interface deck 1 mass flow rate check value iteration history trace: 6.626880E-002,6.626880E-002,6.626880E-002,6.626880E-002,6.626880E-002,6.626880E-002,6.626880E-002,6.626880E-002,6.626880E-002,6.626880E-002,
   **   ~~~   ** Air System Named = CENTRAL SYSTEM did not converge for energy
   **   ~~~   ** Check values should be zero. Most Recent values listed first.
   **   ~~~   ** Demand-to-Supply interface energy check value iteration history trace: 1305.124137,1305.124137,1305.124137,1305.124136,1305.124136,1305.124136,1305.124136,1305.124136,1305.124136,1305.124136,
   **   ~~~   ** Supply-to-demand interface deck 1 energy check value iteration history trace: 2405.782920,2405.782920,2405.782920,2405.782920,2405.782920,2405.782920,2405.782920,2405.782919,2405.782919,2405.782919,
   ** Warning ** SimHVAC: Maximum iterations (20) exceeded for all HVAC loops, at ANNUAL, 01/28 11:19 - 11:22
   **   ~~~   ** The solution for one or more of the Air Loop HVAC systems did not appear to converge
   **   ~~~   ** Air System Named = CENTRAL SYSTEM did not converge for mass flow rate
   **   ~~~   ** Check values should be zero. Most Recent values listed first.
   **   ~~~   ** Demand-to-Supply interface mass flow rate check value iteration history trace: 6.838834E-002,6.838834E-002,6.838834E-002,6.838834E-002,6.838834E-002,6.838834E-002,6.838834E-002,6.838834E-002,6.838834E-002,6.838834E-002,
   **   ~~~   ** Supply-to-demand interface deck 1 mass flow rate check value iteration history trace: 6.838834E-002,6.838834E-002,6.838834E-002,6.838834E-002,6.838834E-002,6.838834E-002,6.838834E-002,6.838834E-002,6.838834E-002,6.838834E-002,
   **   ~~~   ** Air System Named = CENTRAL SYSTEM did not converge for energy
   **   ~~~   ** Check values should be zero. Most Recent values listed first.
   **   ~~~   ** Demand-to-Supply interface energy check value iteration history trace: 1355.302134,1355.302134,1355.302133,1355.302133,1355.302133,1355.302133,1355.302133,1355.302133,1355.302133,1355.302133,
   **   ~~~   ** Supply-to-demand interface deck 1 energy check value iteration history trace: 2224.035462,2224.035462,2224.035462,2224.035461,2224.035461,2224.035461,2224.035461,2224.035461,2224.035461,2224.035461,
   ** Warning ** SimHVAC: Maximum iterations (20) exceeded for all HVAC loops, at ANNUAL, 11/30 17:30 - 17:45
   **   ~~~   ** The solution for one or more of the Air Loop HVAC systems did not appear to converge
   **   ~~~   ** Air System Named = CENTRAL SYSTEM did not converge for mass flow rate
   **   ~~~   ** Check values should be zero. Most Recent values listed first.
   **   ~~~   ** Demand-to-Supply interface mass flow rate check value iteration history trace: 4.644768E-002,4.644768E-002,4.644768E-002,4.644768E-002,4.644768E-002,4.644768E-002,4.644768E-002,4.644768E-002,4.644768E-002,4.644768E-002,
   **   ~~~   ** Supply-to-demand interface deck 1 mass flow rate check value iteration history trace: 4.644768E-002,4.644768E-002,4.644768E-002,4.644768E-002,4.644768E-002,4.644768E-002,4.644768E-002,4.644768E-002,4.644768E-002,4.644768E-002,
   **   ~~~   ** Air System Named = CENTRAL SYSTEM did not converge for energy
   **   ~~~   ** Check values should be zero. Most Recent values listed first.
   **   ~~~   ** Demand-to-Supply interface energy check value iteration history trace: 1094.626858,1094.626858,1094.626858,1094.626858,1094.626858,1094.626858,1094.626858,1094.626858,1094.626858,1094.626858,
   **   ~~~   ** Supply-to-demand interface deck 1 energy check value iteration history trace: 379.467360,379.467361,379.467361,379.467361,379.467361,379.467361,379.467361,379.467361,379.467361,379.467361,
   ** Warning ** SimHVAC: Maximum iterations (20) exceeded for all HVAC loops, at ANNUAL, 12/02 17:55 - 18:00
   **   ~~~   ** The solution for one or more of the Air Loop HVAC systems did not appear to converge
   **   ~~~   ** Air System Named = CENTRAL SYSTEM did not converge for mass flow rate
   **   ~~~   ** Check values should be zero. Most Recent values listed first.
   **   ~~~   ** Demand-to-Supply interface mass flow rate check value iteration history trace: 0.214104,0.214104,0.214104,0.214104,0.214104,0.214104,0.214104,0.214104,0.214104,0.214104,
   **   ~~~   ** Supply-to-demand interface deck 1 mass flow rate check value iteration history trace: 0.214104,0.214104,0.214104,0.214104,0.214104,0.214104,0.214104,0.214104,0.214104,0.214104,
   **   ~~~   ** Air System Named = CENTRAL SYSTEM did not converge for energy
   **   ~~~   ** Check values should be zero. Most Recent values listed first.
   **   ~~~   ** Demand-to-Supply interface energy check value iteration history trace: 5152.660431,5152.660432,5152.660433,5152.660433,5152.660434,5152.660435,5152.660436,5152.660437,5152.660438,5152.660439,
   **   ~~~   ** Supply-to-demand interface deck 1 energy check value iteration history trace: 2434.689883,2434.689883,2434.689884,2434.689884,2434.689885,2434.689885,2434.689886,2434.689886,2434.689886,2434.689887,
   ** Warning ** SimHVAC: Maximum iterations (20) exceeded for all HVAC loops, at ANNUAL, 12/02 19:38 - 19:45
   **   ~~~   ** The solution for one or more of the Air Loop HVAC systems did not appear to converge
   **   ~~~   ** Air System Named = CENTRAL SYSTEM did not converge for mass flow rate
   **   ~~~   ** Check values should be zero. Most Recent values listed first.
   **   ~~~   ** Demand-to-Supply interface mass flow rate check value iteration history trace: 0.231505,0.231505,0.231505,0.231505,0.231505,0.231505,0.231505,0.231505,0.231505,0.231505,
   **   ~~~   ** Supply-to-demand interface deck 1 mass flow rate check value iteration history trace: 0.231505,0.231505,0.231505,0.231505,0.231505,0.231505,0.231505,0.231505,0.231505,0.231505,
   **   ~~~   ** Air System Named = CENTRAL SYSTEM did not converge for energy
   **   ~~~   ** Check values should be zero. Most Recent values listed first.
   **   ~~~   ** Demand-to-Supply interface energy check value iteration history trace: 5556.570899,5556.570900,5556.570901,5556.570903,5556.570904,5556.570905,5556.570906,5556.570908,5556.570909,5556.570910,
   **   ~~~   ** Supply-to-demand interface deck 1 energy check value iteration history trace: 2621.790957,2621.790958,2621.790959,2621.790959,2621.790960,2621.790960,2621.790961,2621.790961,2621.790962,2621.790963,
   ** Warning ** SimHVAC: Maximum iterations (20) exceeded for all HVAC loops, at ANNUAL, 12/04 20:30 - 20:45
   **   ~~~   ** The solution for one or more of the Air Loop HVAC systems did not appear to converge
   **   ~~~   ** Air System Named = CENTRAL SYSTEM did not converge for mass flow rate
   **   ~~~   ** Check values should be zero. Most Recent values listed first.
   **   ~~~   ** Demand-to-Supply interface mass flow rate check value iteration history trace: 0.130040,0.130040,0.130040,0.130040,0.130040,0.130040,0.130040,0.130040,0.130040,0.130040,
   **   ~~~   ** Supply-to-demand interface deck 1 mass flow rate check value iteration history trace: 0.130040,0.130040,0.130040,0.130040,0.130040,0.130040,0.130040,0.130040,0.130040,0.130040,
   **   ~~~   ** Air System Named = CENTRAL SYSTEM did not converge for energy
   **   ~~~   ** Check values should be zero. Most Recent values listed first.
   **   ~~~   ** Demand-to-Supply interface energy check value iteration history trace: 3127.175759,3127.175760,3127.175760,3127.175761,3127.175761,3127.175762,3127.175762,3127.175762,3127.175763,3127.175763,
   **   ~~~   ** Supply-to-demand interface deck 1 energy check value iteration history trace: 1360.829431,1360.829431,1360.829431,1360.829432,1360.829432,1360.829432,1360.829432,1360.829432,1360.829432,1360.829433,
   ** Warning ** SimHVAC: Maximum iterations (20) exceeded for all HVAC loops, at ANNUAL, 12/05 18:53 - 19:00
   **   ~~~   ** The solution for one or more of the Air Loop HVAC systems did not appear to converge
   **   ~~~   ** Air System Named = CENTRAL SYSTEM did not converge for mass flow rate
   **   ~~~   ** Check values should be zero. Most Recent values listed first.
   **   ~~~   ** Demand-to-Supply interface mass flow rate check value iteration history trace: 0.161371,0.161371,0.161371,0.161371,0.161371,0.161371,0.161371,0.161371,0.161371,0.161371,
   **   ~~~   ** Supply-to-demand interface deck 1 mass flow rate check value iteration history trace: 0.161371,0.161371,0.161371,0.161371,0.161371,0.161371,0.161371,0.161371,0.161371,0.161371,
   **   ~~~   ** Air System Named = CENTRAL SYSTEM did not converge for energy
   **   ~~~   ** Check values should be zero. Most Recent values listed first.
   **   ~~~   ** Demand-to-Supply interface energy check value iteration history trace: 3823.184240,3823.184241,3823.184241,3823.184242,3823.184242,3823.184243,3823.184243,3823.184244,3823.184244,3823.184245,
   **   ~~~   ** Supply-to-demand interface deck 1 energy check value iteration history trace: 1645.058084,1645.058084,1645.058084,1645.058085,1645.058085,1645.058085,1645.058085,1645.058085,1645.058086,1645.058086,
   ** Warning ** SimHVAC: Maximum iterations (20) exceeded for all HVAC loops, at ANNUAL, 12/05 20:40 - 20:45
   **   ~~~   ** The solution for one or more of the Air Loop HVAC systems did not appear to converge
   **   ~~~   ** Air System Named = CENTRAL SYSTEM did not converge for mass flow rate
   **   ~~~   ** Check values should be zero. Most Recent values listed first.
   **   ~~~   ** Demand-to-Supply interface mass flow rate check value iteration history trace: 0.233112,0.233112,0.233112,0.233112,0.233112,0.233112,0.233112,0.233112,0.233112,0.233112,
   **   ~~~   ** Supply-to-demand interface deck 1 mass flow rate check value iteration history trace: 0.233112,0.233112,0.233112,0.233112,0.233112,0.233112,0.233112,0.233112,0.233112,0.233112,
   **   ~~~   ** Air System Named = CENTRAL SYSTEM did not converge for energy
   **   ~~~   ** Check values should be zero. Most Recent values listed first.
   **   ~~~   ** Demand-to-Supply interface energy check value iteration history trace: 5569.906443,5569.906444,5569.906445,5569.906446,5569.906447,5569.906447,5569.906448,5569.906449,5569.906450,5569.906451,
   **   ~~~   ** Supply-to-demand interface deck 1 energy check value iteration history trace: 2400.830666,2400.830666,2400.830667,2400.830667,2400.830668,2400.830668,2400.830668,2400.830669,2400.830669,2400.830670,
   ** Warning ** SimHVAC: Maximum iterations (20) exceeded for all HVAC loops, at ANNUAL, 12/06 07:15 - 07:30
   **   ~~~   ** The solution for one or more of the Air Loop HVAC systems did not appear to converge
   **   ~~~   ** Air System Named = CENTRAL SYSTEM did not converge for mass flow rate
   **   ~~~   ** Check values should be zero. Most Recent values listed first.
   **   ~~~   ** Demand-to-Supply interface mass flow rate check value iteration history trace: 5.775930E-002,5.775930E-002,5.775930E-002,5.775930E-002,5.775930E-002,5.775930E-002,5.775930E-002,5.775930E-002,5.775930E-002,5.775930E-002,
   **   ~~~   ** Supply-to-demand interface deck 1 mass flow rate check value iteration history trace: 5.775930E-002,5.775930E-002,5.775930E-002,5.775930E-002,5.775930E-002,5.775930E-002,5.775930E-002,5.775930E-002,5.775930E-002,5.775930E-002,
   **   ~~~   ** Air System Named = CENTRAL SYSTEM did not converge for energy
   **   ~~~   ** Check values should be zero. Most Recent values listed first.
   **   ~~~   ** Demand-to-Supply interface energy check value iteration history trace: 1133.531394,1133.531394,1133.531394,1133.531394,1133.531394,1133.531394,1133.531394,1133.531394,1133.531394,1133.531394,
   **   ~~~   ** Supply-to-demand interface deck 1 energy check value iteration history trace: 2089.675270,2089.675270,2089.675270,2089.675270,2089.675270,2089.675269,2089.675269,2089.675269,2089.675269,2089.675269,
   ** Warning ** SimHVAC: Maximum iterations (20) exceeded for all HVAC loops, at ANNUAL, 12/17 08:15 - 08:22
   **   ~~~   ** The solution for one or more of the Air Loop HVAC systems did not appear to converge
   **   ~~~   ** Air System Named = CENTRAL SYSTEM did not converge for mass flow rate
   **   ~~~   ** Check values should be zero. Most Recent values listed first.
   **   ~~~   ** Demand-to-Supply interface mass flow rate check value iteration history trace: 6.599578E-002,6.599578E-002,6.599578E-002,6.599578E-002,6.599578E-002,6.599578E-002,6.599578E-002,6.599578E-002,6.599578E-002,6.599578E-002,
   **   ~~~   ** Supply-to-demand interface deck 1 mass flow rate check value iteration history trace: 6.599578E-002,6.599578E-002,6.599578E-002,6.599578E-002,6.599578E-002,6.599578E-002,6.599578E-002,6.599578E-002,6.599578E-002,6.599578E-002,
   **   ~~~   ** Air System Named = CENTRAL SYSTEM did not converge for energy
   **   ~~~   ** Check values should be zero. Most Recent values listed first.
   **   ~~~   ** Demand-to-Supply interface energy check value iteration history trace: 1307.660303,1307.660303,1307.660302,1307.660302,1307.660302,1307.660302,1307.660302,1307.660302,1307.660302,1307.660302,
   **   ~~~   ** Supply-to-demand interface deck 1 energy check value iteration history trace: 2323.874601,2323.874601,2323.874601,2323.874600,2323.874600,2323.874600,2323.874600,2323.874600,2323.874600,2323.874600,
   ** Warning ** SimHVAC: Maximum iterations (20) exceeded for all HVAC loops, at ANNUAL, 12/21 19:00 - 19:15
   **   ~~~   ** The solution for one or more of the Air Loop HVAC systems did not appear to converge
   **   ~~~   ** Air System Named = CENTRAL SYSTEM did not converge for mass flow rate
   **   ~~~   ** Check values should be zero. Most Recent values listed first.
   **   ~~~   ** Demand-to-Supply interface mass flow rate check value iteration history trace: 7.122753E-002,7.122753E-002,7.122753E-002,7.122753E-002,7.122753E-002,7.122753E-002,7.122753E-002,7.122753E-002,7.122753E-002,7.122753E-002,
   **   ~~~   ** Supply-to-demand interface deck 1 mass flow rate check value iteration history trace: 7.122753E-002,7.122753E-002,7.122753E-002,7.122753E-002,7.122753E-002,7.122753E-002,7.122753E-002,7.122753E-002,7.122753E-002,7.122753E-002,
   **   ~~~   ** Air System Named = CENTRAL SYSTEM did not converge for energy
   **   ~~~   ** Check values should be zero. Most Recent values listed first.
   **   ~~~   ** Demand-to-Supply interface energy check value iteration history trace: 1408.728268,1408.728268,1408.728268,1408.728268,1408.728268,1408.728268,1408.728268,1408.728268,1408.728268,1408.728268,
   **   ~~~   ** Supply-to-demand interface deck 1 energy check value iteration history trace: 2544.341085,2544.341085,2544.341085,2544.341085,2544.341085,2544.341084,2544.341084,2544.341084,2544.341084,2544.341084,
   ** Warning ** SimHVAC: Maximum iterations (20) exceeded for all HVAC loops, at ANNUAL, 12/31 10:49 - 10:52
   **   ~~~   ** The solution for one or more of the Air Loop HVAC systems did not appear to converge
   **   ~~~   ** Air System Named = CENTRAL SYSTEM did not converge for mass flow rate
   **   ~~~   ** Check values should be zero. Most Recent values listed first.
   **   ~~~   ** Demand-to-Supply interface mass flow rate check value iteration history trace: 8.027982E-002,8.027982E-002,8.027982E-002,8.027982E-002,8.027982E-002,8.027982E-002,8.027982E-002,8.027982E-002,8.027982E-002,8.027982E-002,
   **   ~~~   ** Supply-to-demand interface deck 1 mass flow rate check value iteration history trace: 8.027982E-002,8.027982E-002,8.027982E-002,8.027982E-002,8.027982E-002,8.027982E-002,8.027982E-002,8.027982E-002,8.027982E-002,8.027982E-002,
   **   ~~~   ** Air System Named = CENTRAL SYSTEM did not converge for energy
   **   ~~~   ** Check values should be zero. Most Recent values listed first.
   **   ~~~   ** Demand-to-Supply interface energy check value iteration history trace: 1585.559034,1585.559034,1585.559034,1585.559034,1585.559034,1585.559034,1585.559034,1585.559034,1585.559034,1585.559033,
   **   ~~~   ** Supply-to-demand interface deck 1 energy check value iteration history trace: 2768.824435,2768.824435,2768.824435,2768.824435,2768.824435,2768.824435,2768.824434,2768.824434,2768.824434,2768.824434,
   ************* Simulation Error Summary *************
   ** Warning ** The following Report Variables were requested but not generated -- check.rdd file
   **   ~~~   ** Either the IDF did not contain these elements, the variable name is misspelled,
   **   ~~~   ** or the requested variable is an advanced output which requires Output : Diagnostics, DisplayAdvancedReportVariables;
   ************* Key=*, VarName=BASEBOARD TOTAL HEATING ENERGY, Frequency=
   ************* Key=*, VarName=WATER HEATER NATURALGAS ENERGY, Frequency=
   ************* Key=*, VarName=COOLING COIL TOTAL HEATING ENERGY, Frequency=
   ************* There are 34 unused schedules in input.
   ************* There are 388 unused week schedules in input.
   ************* There are 396 unused day schedules in input.
   ************* Use Output:Diagnostics,DisplayUnusedSchedules; to see them.
   *************
   ************* ===== Recurring Error Summary =====
   ************* The following recurring error messages occurred.
   *************
   *************  ** Warning ** "TOTAL HOT WATER LOAD" - Target water temperature should be less than or equal to the hot water temperature error continues...
   *************  **   ~~~   **   This error occurred 108141 total times;
   *************  **   ~~~   **   during Warmup 0 times;
   *************  **   ~~~   **   during Sizing 0 times.
   *************  **   ~~~   **   Max=7.912804  Min=1.743366E-006
   *************
   *************
   ************* ===== Final Error Summary =====
   ************* The following error categories occurred.  Consider correcting or noting.
   ************* Nominally Unused Constructions
   ************* ..The nominally unused constructions warning is provided to alert you to potential conditions that can cause
   ************* ..extra time during simulation. Each construction is calculated by the algorithm indicated in the HeatBalanceAlgorithm
   ************* ..object. You may remove the constructions indicated (when you use the DisplayExtraWarnings option).
   *************
   ************* EnergyPlus Warmup Error Summary. During Warmup: 1 Warning; 0 Severe Errors.
   ************* EnergyPlus Sizing Error Summary. During Sizing: 4 Warning; 0 Severe Errors.
   ************* EnergyPlus Completed Successfully-- 108172 Warning; 0 Severe Errors; Elapsed Time=00hr 05min 35.18sec
