Program Version,EnergyPlus, Version 22.2.0-c249759bad, YMD=2023.09.01 19:14,
   ************* Beginning Zone Sizing Calculations
   ** Warning ** ProcessScheduleInput: Schedule:Constant="ALWAYS ON DISCRETE", Schedule Type Limits Name="ONOFF" not found -- will not be validated
   ** Warning ** Foundation:Kiva="KIVA FOUNDATION", no Interior Horizontal Insulation Material Name defined
   **   ~~~   ** Interior Horizontal Insulation Depth will not be used.
   ** Warning ** CheckUsedConstructions: There are 15 nominally unused constructions in input.
   **   ~~~   ** Each Unused construction is shown.
   ************* Construction=INTERIOR FLOOR
   ************* Construction=INTERIOR WINDOW
   ************* Construction=EXTERIOR DOOR
   ************* Construction=INTERIOR DOOR
   ************* Construction=GABLE CONSTRUCTION
   ************* Construction=CRAWL_FLOOR
   ************* Construction=INSULATED PIPE
   ************* Construction=PLAIN PIPE
   ************* Construction=TDD PIPE
   ************* Construction=TDD DOME
   ************* Construction=TDD DIFFUSER
   ************* Construction=CRAWL WALL
   ************* Construction=CEILING-FLOOR-LAYER
   ************* Construction=SLAB CONSTRUCTION W FULL R10 INSULATION
   ************* Construction=SLAB CONSTRUCTION W FULL R5 INSULATION
   ** Warning ** GetDXCoils: Coil:Heating:DX:SingleSpeed="DX_HEATING_COIL" curve values
   **   ~~~   ** ... Defrost Energy Input Ratio Function of Temperature Curve Name = DEFROSTEIR output is not equal to 1.0 (+ or - 10%) at rated conditions.
   **   ~~~   ** ... Curve output at rated conditions = 0.152
   ************* Beginning System Sizing Calculations
   ************* Beginning Plant Sizing Calculations
   ** Warning ** SizeDXCoil Coil:Cooling:DX:SingleSpeed DX_COOLING_COIL
   **   ~~~   ** ...Gross Rated Total Cooling Capacity [W] will be limited by the maximum rated volume flow per rated total capacity ratio.
   **   ~~~   ** ...DX coil volume flow rate ( m3/s ) = 0.410901
   **   ~~~   ** ...Requested capacity ( W ) = 6152.780
   **   ~~~   ** ...Requested flow/capacity ratio ( m3/s/W ) = 6.678E-005
   **   ~~~   ** ...Maximum flow/capacity ratio ( m3/s/W ) = 6.041E-005
   **   ~~~   ** ...Adjusted capacity ( W ) = 6801.873
   ** Warning ** SizeDXCoil Coil:Heating:DX:SingleSpeed DX_HEATING_COIL
   **   ~~~   ** ...Gross Rated Heating Capacity [W] will be limited by the maximum rated volume flow per rated total capacity ratio.
   **   ~~~   ** ...DX coil volume flow rate ( m3/s ) = 0.410901
   **   ~~~   ** ...Requested capacity ( W ) = 6801.873
   **   ~~~   ** ...Requested flow/capacity ratio ( m3/s/W ) = 6.041E-005
   **   ~~~   ** ...Maximum flow/capacity ratio ( m3/s/W ) = 6.041E-005
   **   ~~~   ** ...Adjusted capacity ( W ) = 6801.873
   ** Warning ** Coil:WaterHeating:AirToWaterHeatPump:Wrapped "HEAT PUMP WATER HEATER EVAPORATOR": Rated air volume flow rate per watt of rated total water heating capacity is out of range
   **   ~~~   ** Min Rated Vol Flow Per Watt=[4.027E-005], Rated Vol Flow Per Watt=[1.510E-004], Max Rated Vol Flow Per Watt=[8.056E-005]. See Input-Output Reference Manual for valid range.
   ************* SizeFan: : Potential issue with equipment sizing for Fan:OnOff HEAT PUMP WATER HEATER FAN
   **   ~~~   ** User-Specified Maximum Flow Rate [m3/s] = 0.22653
   **   ~~~   ** differs from Design Size Maximum Flow Rate [m3/s] = 7.55250E-002
   **   ~~~   ** This may, or may not, indicate mismatched component sizes.
   **   ~~~   ** Verify that the value entered is intended and is consistent with other components.
   ** Warning ** Water heater = WATER HEATER TANK:  Recovery Efficiency and Energy Factor could not be calculated during the test for standard ratings
   **   ~~~   ** Setpoint was never recovered and/or heater never turned on
   ** Warning ** Check input. Pump nominal power or motor efficiency is set to 0, for pump=MAINS PRESSURE
   ** Warning ** Output:Meter: invalid Key Name="ELECTRIC_RANGE:INTERIOREQUIPMENT:ELECTRICITY" - not found.
   ** Warning ** Output:Meter: invalid Key Name="ELECTRIC_DRYER:INTERIOREQUIPMENT:ELECTRICITY" - not found.
   ** Warning ** Output:Meter: invalid Key Name="HEATRECOVERY:ELECTRICITY" - not found.
   ** Warning ** Output:Meter: invalid Key Name="HEATING:NATURALGAS" - not found.
   ** Warning ** Output:Meter: invalid Key Name="WATERSYSTEMS:NATURALGAS" - not found.
   ** Warning ** Output:Meter: invalid Key Name="PROPANE:FACILITY" - not found.
   ** Warning ** Output:Meter: invalid Key Name="HEATING:PROPANE" - not found.
   ************* Testing Individual Branch Integrity
   ************* All Branches passed integrity testing
   ************* Testing Individual Supply Air Path Integrity
   ************* All Supply Air Paths passed integrity testing
   ************* Testing Individual Return Air Path Integrity
   ************* All Return Air Paths passed integrity testing
   ************* No node connection errors were found.
   ************* Beginning Simulation
   ** Warning ** AirflowNetwork::Solver::validate_distribution: Heat pump water heater is simulated along with an AirflowNetwork but is not included in the AirflowNetwork.
   ** Warning ** CalcEquipmentFlowRates: "TOTAL HOT WATER LOAD" - Target water temperature is greater than the hot water temperature by (1.97 C)
   **   ~~~   **  Environment=EXTREME_WINTER, at Simulation time=02/05 06:45 - 07:00
   **   ~~~   ** ...target water temperature     = 53.33 C
   **   ~~~   ** ...hot water temperature        = 51.36 C
   **   ~~~   ** ...Target water temperature should be less than or equal to the hot water temperature. Verify temperature setpoints and schedules.
   ** Warning ** SimHVAC: Maximum iterations (20) exceeded for all HVAC loops, at ANNUAL, 03/14 16:30 - 16:35
   **   ~~~   ** The solution for one or more of the Air Loop HVAC systems did not appear to converge
   **   ~~~   ** Air System Named = CENTRAL SYSTEM did not converge for mass flow rate
   **   ~~~   ** Check values should be zero. Most Recent values listed first.
   **   ~~~   ** Demand-to-Supply interface mass flow rate check value iteration history trace: 6.213293E-002,6.213293E-002,6.213293E-002,6.213293E-002,6.213293E-002,6.213293E-002,6.213293E-002,6.213293E-002,6.213293E-002,6.213293E-002,
   **   ~~~   ** Supply-to-demand interface deck 1 mass flow rate check value iteration history trace: 6.213293E-002,6.213293E-002,6.213293E-002,6.213293E-002,6.213293E-002,6.213293E-002,6.213293E-002,6.213293E-002,6.213293E-002,6.213293E-002,
   **   ~~~   ** Air System Named = CENTRAL SYSTEM did not converge for energy
   **   ~~~   ** Check values should be zero. Most Recent values listed first.
   **   ~~~   ** Demand-to-Supply interface energy check value iteration history trace: 1231.177167,1231.177167,1231.177167,1231.177166,1231.177166,1231.177166,1231.177166,1231.177166,1231.177166,1231.177166,
   **   ~~~   ** Supply-to-demand interface deck 1 energy check value iteration history trace: 1830.191598,1830.191597,1830.191597,1830.191597,1830.191597,1830.191597,1830.191597,1830.191597,1830.191597,1830.191597,
   ** Warning ** SimHVAC: Maximum iterations (20) exceeded for all HVAC loops, at ANNUAL, 03/27 10:15 - 10:17
   **   ~~~   ** The solution for one or more of the Air Loop HVAC systems did not appear to converge
   **   ~~~   ** Air System Named = CENTRAL SYSTEM did not converge for mass flow rate
   **   ~~~   ** Check values should be zero. Most Recent values listed first.
   **   ~~~   ** Demand-to-Supply interface mass flow rate check value iteration history trace: 6.694242E-002,6.694242E-002,6.694242E-002,6.694242E-002,6.694242E-002,6.694242E-002,6.694242E-002,6.694242E-002,6.694242E-002,6.694242E-002,
   **   ~~~   ** Supply-to-demand interface deck 1 mass flow rate check value iteration history trace: 6.694242E-002,6.694242E-002,6.694242E-002,6.694242E-002,6.694242E-002,6.694242E-002,6.694242E-002,6.694242E-002,6.694242E-002,6.694242E-002,
   **   ~~~   ** Air System Named = CENTRAL SYSTEM did not converge for energy
   **   ~~~   ** Check values should be zero. Most Recent values listed first.
   **   ~~~   ** Demand-to-Supply interface energy check value iteration history trace: 1326.627339,1326.627339,1326.627339,1326.627339,1326.627339,1326.627339,1326.627338,1326.627338,1326.627338,1326.627338,
   **   ~~~   ** Supply-to-demand interface deck 1 energy check value iteration history trace: 2225.098379,2225.098379,2225.098379,2225.098379,2225.098379,2225.098379,2225.098378,2225.098378,2225.098378,2225.098378,
   ** Warning ** SimHVAC: Maximum iterations (20) exceeded for all HVAC loops, at ANNUAL, 03/29 10:30 - 10:45
   **   ~~~   ** The solution for one or more of the Air Loop HVAC systems did not appear to converge
   **   ~~~   ** Air System Named = CENTRAL SYSTEM did not converge for mass flow rate
   **   ~~~   ** Check values should be zero. Most Recent values listed first.
   **   ~~~   ** Demand-to-Supply interface mass flow rate check value iteration history trace: 6.283400E-002,6.283400E-002,6.283400E-002,6.283400E-002,6.283400E-002,6.283400E-002,6.283400E-002,6.283400E-002,6.283400E-002,6.283400E-002,
   **   ~~~   ** Supply-to-demand interface deck 1 mass flow rate check value iteration history trace: 6.283400E-002,6.283400E-002,6.283400E-002,6.283400E-002,6.283400E-002,6.283400E-002,6.283400E-002,6.283400E-002,6.283400E-002,6.283400E-002,
   **   ~~~   ** Air System Named = CENTRAL SYSTEM did not converge for energy
   **   ~~~   ** Check values should be zero. Most Recent values listed first.
   **   ~~~   ** Demand-to-Supply interface energy check value iteration history trace: 1238.549886,1238.549886,1238.549886,1238.549886,1238.549886,1238.549886,1238.549885,1238.549885,1238.549885,1238.549885,
   **   ~~~   ** Supply-to-demand interface deck 1 energy check value iteration history trace: 2219.082552,2219.082552,2219.082552,2219.082552,2219.082552,2219.082552,2219.082552,2219.082551,2219.082551,2219.082551,
   ** Warning ** SimHVAC: Maximum iterations (20) exceeded for all HVAC loops, at ANNUAL, 04/03 08:15 - 08:30
   **   ~~~   ** The solution for one or more of the Air Loop HVAC systems did not appear to converge
   **   ~~~   ** Air System Named = CENTRAL SYSTEM did not converge for mass flow rate
   **   ~~~   ** Check values should be zero. Most Recent values listed first.
   **   ~~~   ** Demand-to-Supply interface mass flow rate check value iteration history trace: 6.600556E-002,6.600556E-002,6.600556E-002,6.600556E-002,6.600556E-002,6.600556E-002,6.600556E-002,6.600556E-002,6.600556E-002,6.600556E-002,
   **   ~~~   ** Supply-to-demand interface deck 1 mass flow rate check value iteration history trace: 6.600556E-002,6.600556E-002,6.600556E-002,6.600556E-002,6.600556E-002,6.600556E-002,6.600556E-002,6.600556E-002,6.600556E-002,6.600556E-002,
   **   ~~~   ** Air System Named = CENTRAL SYSTEM did not converge for energy
   **   ~~~   ** Check values should be zero. Most Recent values listed first.
   **   ~~~   ** Demand-to-Supply interface energy check value iteration history trace: 1306.852149,1306.852149,1306.852149,1306.852149,1306.852149,1306.852149,1306.852149,1306.852148,1306.852148,1306.852148,
   **   ~~~   ** Supply-to-demand interface deck 1 energy check value iteration history trace: 2338.816245,2338.816245,2338.816245,2338.816245,2338.816245,2338.816245,2338.816245,2338.816245,2338.816245,2338.816245,
   ** Warning ** SimHVAC: Maximum iterations (20) exceeded for all HVAC loops, at ANNUAL, 04/12 11:35 - 11:40
   **   ~~~   ** The solution for one or more of the Air Loop HVAC systems did not appear to converge
   **   ~~~   ** Air System Named = CENTRAL SYSTEM did not converge for mass flow rate
   **   ~~~   ** Check values should be zero. Most Recent values listed first.
   **   ~~~   ** Demand-to-Supply interface mass flow rate check value iteration history trace: 5.863393E-002,5.863393E-002,5.863393E-002,5.863393E-002,5.863393E-002,5.863393E-002,5.863393E-002,5.863393E-002,5.863393E-002,5.863393E-002,
   **   ~~~   ** Supply-to-demand interface deck 1 mass flow rate check value iteration history trace: 5.863393E-002,5.863393E-002,5.863393E-002,5.863393E-002,5.863393E-002,5.863393E-002,5.863393E-002,5.863393E-002,5.863393E-002,5.863393E-002,
   **   ~~~   ** Air System Named = CENTRAL SYSTEM did not converge for energy
   **   ~~~   ** Check values should be zero. Most Recent values listed first.
   **   ~~~   ** Demand-to-Supply interface energy check value iteration history trace: 1158.323567,1158.323567,1158.323567,1158.323567,1158.323567,1158.323567,1158.323567,1158.323567,1158.323567,1158.323567,
   **   ~~~   ** Supply-to-demand interface deck 1 energy check value iteration history trace: 1946.717813,1946.717813,1946.717813,1946.717813,1946.717813,1946.717813,1946.717813,1946.717813,1946.717813,1946.717812,
   ** Warning ** SimHVAC: Maximum iterations (20) exceeded for all HVAC loops, at ANNUAL, 04/16 07:38 - 07:45
   **   ~~~   ** The solution for one or more of the Air Loop HVAC systems did not appear to converge
   **   ~~~   ** Air System Named = CENTRAL SYSTEM did not converge for mass flow rate
   **   ~~~   ** Check values should be zero. Most Recent values listed first.
   **   ~~~   ** Demand-to-Supply interface mass flow rate check value iteration history trace: 5.816467E-002,5.816467E-002,5.816467E-002,5.816467E-002,5.816467E-002,5.816467E-002,5.816467E-002,5.816467E-002,5.816467E-002,5.816467E-002,
   **   ~~~   ** Supply-to-demand interface deck 1 mass flow rate check value iteration history trace: 5.816467E-002,5.816467E-002,5.816467E-002,5.816467E-002,5.816467E-002,5.816467E-002,5.816467E-002,5.816467E-002,5.816467E-002,5.816467E-002,
   **   ~~~   ** Air System Named = CENTRAL SYSTEM did not converge for energy
   **   ~~~   ** Check values should be zero. Most Recent values listed first.
   **   ~~~   ** Demand-to-Supply interface energy check value iteration history trace: 1152.689993,1152.689993,1152.689993,1152.689993,1152.689993,1152.689993,1152.689993,1152.689993,1152.689992,1152.689992,
   **   ~~~   ** Supply-to-demand interface deck 1 energy check value iteration history trace: 2047.842163,2047.842162,2047.842162,2047.842162,2047.842162,2047.842162,2047.842162,2047.842162,2047.842162,2047.842162,
   ** Warning ** SimHVAC: Maximum iterations (20) exceeded for all HVAC loops, at ANNUAL, 04/20 11:25 - 11:27
   **   ~~~   ** The solution for one or more of the Air Loop HVAC systems did not appear to converge
   **   ~~~   ** Air System Named = CENTRAL SYSTEM did not converge for mass flow rate
   **   ~~~   ** Check values should be zero. Most Recent values listed first.
   **   ~~~   ** Demand-to-Supply interface mass flow rate check value iteration history trace: 6.766948E-002,6.766948E-002,6.766948E-002,6.766948E-002,6.766948E-002,6.766948E-002,6.766948E-002,6.766948E-002,6.766948E-002,6.766948E-002,
   **   ~~~   ** Supply-to-demand interface deck 1 mass flow rate check value iteration history trace: 6.766948E-002,6.766948E-002,6.766948E-002,6.766948E-002,6.766948E-002,6.766948E-002,6.766948E-002,6.766948E-002,6.766948E-002,6.766948E-002,
   **   ~~~   ** Air System Named = CENTRAL SYSTEM did not converge for energy
   **   ~~~   ** Check values should be zero. Most Recent values listed first.
   **   ~~~   ** Demand-to-Supply interface energy check value iteration history trace: 1332.515941,1332.515940,1332.515940,1332.515940,1332.515940,1332.515940,1332.515940,1332.515940,1332.515940,1332.515940,
   **   ~~~   ** Supply-to-demand interface deck 1 energy check value iteration history trace: 2412.735478,2412.735478,2412.735477,2412.735477,2412.735477,2412.735477,2412.735477,2412.735477,2412.735477,2412.735477,
   ** Warning ** SimHVAC: Maximum iterations (20) exceeded for all HVAC loops, at ANNUAL, 04/27 09:38 - 09:45
   **   ~~~   ** The solution for one or more of the Air Loop HVAC systems did not appear to converge
   **   ~~~   ** Air System Named = CENTRAL SYSTEM did not converge for mass flow rate
   **   ~~~   ** Check values should be zero. Most Recent values listed first.
   **   ~~~   ** Demand-to-Supply interface mass flow rate check value iteration history trace: 0.100444,0.100444,0.100444,0.100444,0.100444,0.100444,0.100444,0.100444,0.100444,0.100444,
   **   ~~~   ** Supply-to-demand interface deck 1 mass flow rate check value iteration history trace: 0.100444,0.100444,0.100444,0.100444,0.100444,0.100444,0.100444,0.100444,0.100444,0.100444,
   **   ~~~   ** Air System Named = CENTRAL SYSTEM did not converge for energy
   **   ~~~   ** Check values should be zero. Most Recent values listed first.
   **   ~~~   ** Demand-to-Supply interface energy check value iteration history trace: 1990.710612,1990.710612,1990.710612,1990.710612,1990.710612,1990.710612,1990.710612,1990.710612,1990.710611,1990.710611,
   **   ~~~   ** Supply-to-demand interface deck 1 energy check value iteration history trace: 3168.842639,3168.842639,3168.842639,3168.842639,3168.842639,3168.842638,3168.842638,3168.842638,3168.842638,3168.842638,
   ** Warning ** SimHVAC: Maximum iterations (20) exceeded for all HVAC loops, at ANNUAL, 05/17 08:36 - 08:39
   **   ~~~   ** The solution for one or more of the Air Loop HVAC systems did not appear to converge
   **   ~~~   ** Air System Named = CENTRAL SYSTEM did not converge for mass flow rate
   **   ~~~   ** Check values should be zero. Most Recent values listed first.
   **   ~~~   ** Demand-to-Supply interface mass flow rate check value iteration history trace: 6.859140E-002,6.859140E-002,6.859140E-002,6.859140E-002,6.859140E-002,6.859140E-002,6.859140E-002,6.859140E-002,6.859140E-002,6.859140E-002,
   **   ~~~   ** Supply-to-demand interface deck 1 mass flow rate check value iteration history trace: 6.859140E-002,6.859140E-002,6.859140E-002,6.859140E-002,6.859140E-002,6.859140E-002,6.859140E-002,6.859140E-002,6.859140E-002,6.859140E-002,
   **   ~~~   ** Air System Named = CENTRAL SYSTEM did not converge for energy
   **   ~~~   ** Check values should be zero. Most Recent values listed first.
   **   ~~~   ** Demand-to-Supply interface energy check value iteration history trace: 1352.398490,1352.398490,1352.398490,1352.398490,1352.398490,1352.398490,1352.398490,1352.398490,1352.398490,1352.398490,
   **   ~~~   ** Supply-to-demand interface deck 1 energy check value iteration history trace: 2449.947867,2449.947867,2449.947867,2449.947867,2449.947867,2449.947867,2449.947867,2449.947867,2449.947866,2449.947866,
   ** Warning ** SimHVAC: Maximum iterations (20) exceeded for all HVAC loops, at ANNUAL, 09/11 20:10 - 20:15
   **   ~~~   ** The solution for one or more of the Air Loop HVAC systems did not appear to converge
   **   ~~~   ** Air System Named = CENTRAL SYSTEM did not converge for mass flow rate
   **   ~~~   ** Check values should be zero. Most Recent values listed first.
   **   ~~~   ** Demand-to-Supply interface mass flow rate check value iteration history trace: 9.864213E-002,9.864213E-002,9.864213E-002,9.864213E-002,9.864213E-002,9.864213E-002,9.864213E-002,9.864213E-002,9.864213E-002,9.864213E-002,
   **   ~~~   ** Supply-to-demand interface deck 1 mass flow rate check value iteration history trace: 9.864213E-002,9.864213E-002,9.864213E-002,9.864213E-002,9.864213E-002,9.864213E-002,9.864213E-002,9.864213E-002,9.864213E-002,9.864213E-002,
   **   ~~~   ** Air System Named = CENTRAL SYSTEM did not converge for energy
   **   ~~~   ** Check values should be zero. Most Recent values listed first.
   **   ~~~   ** Demand-to-Supply interface energy check value iteration history trace: 2354.898839,2354.898840,2354.898840,2354.898840,2354.898840,2354.898840,2354.898840,2354.898840,2354.898841,2354.898841,
   **   ~~~   ** Supply-to-demand interface deck 1 energy check value iteration history trace: 874.258401,874.258401,874.258401,874.258401,874.258401,874.258401,874.258401,874.258401,874.258401,874.258401,
   ** Warning ** SimHVAC: Maximum iterations (20) exceeded for all HVAC loops, at ANNUAL, 09/22 07:51 - 07:54
   **   ~~~   ** The solution for one or more of the Air Loop HVAC systems did not appear to converge
   **   ~~~   ** Air System Named = CENTRAL SYSTEM did not converge for mass flow rate
   **   ~~~   ** Check values should be zero. Most Recent values listed first.
   **   ~~~   ** Demand-to-Supply interface mass flow rate check value iteration history trace: 6.095402E-002,6.095402E-002,6.095402E-002,6.095402E-002,6.095402E-002,6.095402E-002,6.095402E-002,6.095402E-002,6.095402E-002,6.095402E-002,
   **   ~~~   ** Supply-to-demand interface deck 1 mass flow rate check value iteration history trace: 6.095402E-002,6.095402E-002,6.095402E-002,6.095402E-002,6.095402E-002,6.095402E-002,6.095402E-002,6.095402E-002,6.095402E-002,6.095402E-002,
   **   ~~~   ** Air System Named = CENTRAL SYSTEM did not converge for energy
   **   ~~~   ** Check values should be zero. Most Recent values listed first.
   **   ~~~   ** Demand-to-Supply interface energy check value iteration history trace: 1200.594569,1200.594569,1200.594569,1200.594569,1200.594569,1200.594569,1200.594568,1200.594568,1200.594568,1200.594568,
   **   ~~~   ** Supply-to-demand interface deck 1 energy check value iteration history trace: 2163.883075,2163.883075,2163.883075,2163.883075,2163.883075,2163.883074,2163.883074,2163.883074,2163.883074,2163.883074,
   ** Warning ** SimHVAC: Maximum iterations (20) exceeded for all HVAC loops, at ANNUAL, 09/24 09:50 - 09:55
   **   ~~~   ** The solution for one or more of the Air Loop HVAC systems did not appear to converge
   **   ~~~   ** Air System Named = CENTRAL SYSTEM did not converge for mass flow rate
   **   ~~~   ** Check values should be zero. Most Recent values listed first.
   **   ~~~   ** Demand-to-Supply interface mass flow rate check value iteration history trace: 0.166036,0.166036,0.166036,0.166036,0.166036,0.166036,0.166036,0.166036,0.166036,0.166036,
   **   ~~~   ** Supply-to-demand interface deck 1 mass flow rate check value iteration history trace: 0.166036,0.166036,0.166036,0.166036,0.166036,0.166036,0.166036,0.166036,0.166036,0.166036,
   **   ~~~   ** Air System Named = CENTRAL SYSTEM did not converge for energy
   **   ~~~   ** Check values should be zero. Most Recent values listed first.
   **   ~~~   ** Demand-to-Supply interface energy check value iteration history trace: 3927.442069,3927.442070,3927.442071,3927.442073,3927.442074,3927.442075,3927.442076,3927.442077,3927.442079,3927.442080,
   **   ~~~   ** Supply-to-demand interface deck 1 energy check value iteration history trace: 2027.751915,2027.751916,2027.751917,2027.751917,2027.751918,2027.751919,2027.751919,2027.751920,2027.751921,2027.751921,
   ** Warning ** SimHVAC: Maximum iterations (20) exceeded for all HVAC loops, at ANNUAL, 09/24 14:08 - 14:15
   **   ~~~   ** The solution for one or more of the Air Loop HVAC systems did not appear to converge
   **   ~~~   ** Air System Named = CENTRAL SYSTEM did not converge for mass flow rate
   **   ~~~   ** Check values should be zero. Most Recent values listed first.
   **   ~~~   ** Demand-to-Supply interface mass flow rate check value iteration history trace: 0.148198,0.148198,0.148198,0.148198,0.148198,0.148198,0.148198,0.148198,0.148198,0.148198,
   **   ~~~   ** Supply-to-demand interface deck 1 mass flow rate check value iteration history trace: 0.148198,0.148198,0.148198,0.148198,0.148198,0.148198,0.148198,0.148198,0.148198,0.148198,
   **   ~~~   ** Air System Named = CENTRAL SYSTEM did not converge for energy
   **   ~~~   ** Check values should be zero. Most Recent values listed first.
   **   ~~~   ** Demand-to-Supply interface energy check value iteration history trace: 3499.776682,3499.776683,3499.776684,3499.776685,3499.776686,3499.776687,3499.776688,3499.776689,3499.776690,3499.776691,
   **   ~~~   ** Supply-to-demand interface deck 1 energy check value iteration history trace: 1833.911167,1833.911168,1833.911168,1833.911169,1833.911169,1833.911170,1833.911170,1833.911171,1833.911171,1833.911172,
   ** Warning ** SimHVAC: Maximum iterations (20) exceeded for all HVAC loops, at ANNUAL, 10/14 13:15 - 13:30
   **   ~~~   ** The solution for one or more of the Air Loop HVAC systems did not appear to converge
   **   ~~~   ** Air System Named = CENTRAL SYSTEM did not converge for mass flow rate
   **   ~~~   ** Check values should be zero. Most Recent values listed first.
   **   ~~~   ** Demand-to-Supply interface mass flow rate check value iteration history trace: 5.903788E-002,5.903788E-002,5.903788E-002,5.903788E-002,5.903788E-002,5.903788E-002,5.903788E-002,5.903788E-002,5.903788E-002,5.903788E-002,
   **   ~~~   ** Supply-to-demand interface deck 1 mass flow rate check value iteration history trace: 5.903788E-002,5.903788E-002,5.903788E-002,5.903788E-002,5.903788E-002,5.903788E-002,5.903788E-002,5.903788E-002,5.903788E-002,5.903788E-002,
   **   ~~~   ** Air System Named = CENTRAL SYSTEM did not converge for energy
   **   ~~~   ** Check values should be zero. Most Recent values listed first.
   **   ~~~   ** Demand-to-Supply interface energy check value iteration history trace: 1143.391707,1143.391707,1143.391707,1143.391707,1143.391707,1143.391707,1143.391707,1143.391707,1143.391707,1143.391707,
   **   ~~~   ** Supply-to-demand interface deck 1 energy check value iteration history trace: 1971.789853,1971.789853,1971.789853,1971.789853,1971.789853,1971.789853,1971.789853,1971.789853,1971.789853,1971.789853,
   ************* Simulation Error Summary *************
   ** Warning ** The following Report Variables were requested but not generated -- check.rdd file
   **   ~~~   ** Either the IDF did not contain these elements, the variable name is misspelled,
   **   ~~~   ** or the requested variable is an advanced output which requires Output : Diagnostics, DisplayAdvancedReportVariables;
   ************* Key=*, VarName=BASEBOARD TOTAL HEATING ENERGY, Frequency=
   ************* Key=*, VarName=WATER HEATER NATURALGAS ENERGY, Frequency=
   ************* Key=*, VarName=COOLING COIL TOTAL HEATING ENERGY, Frequency=
   ************* There are 34 unused schedules in input.
   ************* There are 388 unused week schedules in input.
   ************* There are 397 unused day schedules in input.
   ************* Use Output:Diagnostics,DisplayUnusedSchedules; to see them.
   *************
   ************* ===== Recurring Error Summary =====
   ************* The following recurring error messages occurred.
   *************
   *************  ** Warning ** "TOTAL HOT WATER LOAD" - Target water temperature should be less than or equal to the hot water temperature error continues...
   *************  **   ~~~   **   This error occurred 83543 total times;
   *************  **   ~~~   **   during Warmup 0 times;
   *************  **   ~~~   **   during Sizing 0 times.
   *************  **   ~~~   **   Max=9.824197  Min=4.370297E-004
   *************
   *************  ** Warning ** SimHVAC: Exceeding Maximum iterations for all HVAC loops, during ANNUAL continues
   *************  **   ~~~   **   This error occurred 4 total times;
   *************  **   ~~~   **   during Warmup 0 times;
   *************  **   ~~~   **   during Sizing 0 times.
   *************
   *************
   ************* ===== Final Error Summary =====
   ************* The following error categories occurred.  Consider correcting or noting.
   ************* Nominally Unused Constructions
   ************* ..The nominally unused constructions warning is provided to alert you to potential conditions that can cause
   ************* ..extra time during simulation. Each construction is calculated by the algorithm indicated in the HeatBalanceAlgorithm
   ************* ..object. You may remove the constructions indicated (when you use the DisplayExtraWarnings option).
   *************
   ************* EnergyPlus Warmup Error Summary. During Warmup: 1 Warning; 0 Severe Errors.
   ************* EnergyPlus Sizing Error Summary. During Sizing: 4 Warning; 0 Severe Errors.
   ************* EnergyPlus Completed Successfully-- 83580 Warning; 0 Severe Errors; Elapsed Time=00hr 01min 27.77sec
