Program Version,EnergyPlus, Version 22.2.0-c249759bad, YMD=2023.09.01 14:36,
   ************* Beginning Zone Sizing Calculations
   ** Warning ** ProcessScheduleInput: Schedule:Constant="ALWAYS ON DISCRETE", Schedule Type Limits Name="ONOFF" not found -- will not be validated
   ** Warning ** Foundation:Kiva="KIVA FOUNDATION", no Interior Horizontal Insulation Material Name defined
   **   ~~~   ** Interior Horizontal Insulation Depth will not be used.
   ** Warning ** CheckUsedConstructions: There are 15 nominally unused constructions in input.
   **   ~~~   ** Each Unused construction is shown.
   ************* Construction=INTERIOR FLOOR
   ************* Construction=INTERIOR WINDOW
   ************* Construction=EXTERIOR DOOR
   ************* Construction=INTERIOR DOOR
   ************* Construction=GABLE CONSTRUCTION
   ************* Construction=CRAWL_FLOOR
   ************* Construction=INSULATED PIPE
   ************* Construction=PLAIN PIPE
   ************* Construction=TDD PIPE
   ************* Construction=TDD DOME
   ************* Construction=TDD DIFFUSER
   ************* Construction=CRAWL WALL
   ************* Construction=CEILING-FLOOR-LAYER
   ************* Construction=SLAB CONSTRUCTION W FULL R10 INSULATION
   ************* Construction=SLAB CONSTRUCTION W FULL R5 INSULATION
   ** Warning ** GetDXCoils: Coil:Heating:DX:SingleSpeed="DX_HEATING_COIL" curve values
   **   ~~~   ** ... Defrost Energy Input Ratio Function of Temperature Curve Name = DEFROSTEIR output is not equal to 1.0 (+ or - 10%) at rated conditions.
   **   ~~~   ** ... Curve output at rated conditions = 0.152
   ************* Beginning System Sizing Calculations
   ************* Beginning Plant Sizing Calculations
   ** Warning ** SizeDXCoil Coil:Cooling:DX:SingleSpeed DX_COOLING_COIL
   **   ~~~   ** ...Gross Rated Total Cooling Capacity [W] will be limited by the maximum rated volume flow per rated total capacity ratio.
   **   ~~~   ** ...DX coil volume flow rate ( m3/s ) = 0.396056
   **   ~~~   ** ...Requested capacity ( W ) = 6455.714
   **   ~~~   ** ...Requested flow/capacity ratio ( m3/s/W ) = 6.134E-005
   **   ~~~   ** ...Maximum flow/capacity ratio ( m3/s/W ) = 6.041E-005
   **   ~~~   ** ...Adjusted capacity ( W ) = 6556.136
   ** Warning ** Coil:WaterHeating:AirToWaterHeatPump:Wrapped "HEAT PUMP WATER HEATER EVAPORATOR": Rated air volume flow rate per watt of rated total water heating capacity is out of range
   **   ~~~   ** Min Rated Vol Flow Per Watt=[4.027E-005], Rated Vol Flow Per Watt=[1.386E-004], Max Rated Vol Flow Per Watt=[8.056E-005]. See Input-Output Reference Manual for valid range.
   ** Warning ** Water heater = WATER HEATER TANK:  Recovery Efficiency and Energy Factor could not be calculated during the test for standard ratings
   **   ~~~   ** Setpoint was never recovered and/or heater never turned on
   ** Warning ** Check input. Pump nominal power or motor efficiency is set to 0, for pump=MAINS PRESSURE
   ** Warning ** Output:Meter: invalid Key Name="ELECTRIC_RANGE:INTERIOREQUIPMENT:ELECTRICITY" - not found.
   ** Warning ** Output:Meter: invalid Key Name="ELECTRIC_DRYER:INTERIOREQUIPMENT:ELECTRICITY" - not found.
   ** Warning ** Output:Meter: invalid Key Name="HEATRECOVERY:ELECTRICITY" - not found.
   ** Warning ** Output:Meter: invalid Key Name="HEATING:NATURALGAS" - not found.
   ** Warning ** Output:Meter: invalid Key Name="WATERSYSTEMS:NATURALGAS" - not found.
   ** Warning ** Output:Meter: invalid Key Name="PROPANE:FACILITY" - not found.
   ** Warning ** Output:Meter: invalid Key Name="HEATING:PROPANE" - not found.
   ************* Testing Individual Branch Integrity
   ************* All Branches passed integrity testing
   ************* Testing Individual Supply Air Path Integrity
   ************* All Supply Air Paths passed integrity testing
   ************* Testing Individual Return Air Path Integrity
   ************* All Return Air Paths passed integrity testing
   ************* No node connection errors were found.
   ************* Beginning Simulation
   ** Warning ** AirflowNetwork::Solver::validate_distribution: Heat pump water heater is simulated along with an AirflowNetwork but is not included in the AirflowNetwork.
   ** Warning ** CalcEquipmentFlowRates: "TOTAL HOT WATER LOAD" - Target water temperature is greater than the hot water temperature by (1.67 C)
   **   ~~~   **  Environment=EXTREME_WINTER, at Simulation time=01/13 06:00 - 06:15
   **   ~~~   ** ...target water temperature     = 53.33 C
   **   ~~~   ** ...hot water temperature        = 51.66 C
   **   ~~~   ** ...Target water temperature should be less than or equal to the hot water temperature. Verify temperature setpoints and schedules.
   ** Warning ** SimHVAC: Maximum iterations (20) exceeded for all HVAC loops, at ANNUAL, 02/02 17:00 - 17:05
   **   ~~~   ** The solution for one or more of the Air Loop HVAC systems did not appear to converge
   **   ~~~   ** Air System Named = CENTRAL SYSTEM did not converge for mass flow rate
   **   ~~~   ** Check values should be zero. Most Recent values listed first.
   **   ~~~   ** Demand-to-Supply interface mass flow rate check value iteration history trace: 8.592482E-002,8.592482E-002,8.592482E-002,8.592482E-002,8.592482E-002,8.592482E-002,8.592482E-002,8.592482E-002,8.592482E-002,8.592482E-002,
   **   ~~~   ** Supply-to-demand interface deck 1 mass flow rate check value iteration history trace: 8.592482E-002,8.592482E-002,8.592482E-002,8.592482E-002,8.592482E-002,8.592482E-002,8.592482E-002,8.592482E-002,8.592482E-002,8.592482E-002,
   **   ~~~   ** Air System Named = CENTRAL SYSTEM did not converge for energy
   **   ~~~   ** Check values should be zero. Most Recent values listed first.
   **   ~~~   ** Demand-to-Supply interface energy check value iteration history trace: 1704.227472,1704.227472,1704.227472,1704.227472,1704.227472,1704.227472,1704.227472,1704.227471,1704.227471,1704.227471,
   **   ~~~   ** Supply-to-demand interface deck 1 energy check value iteration history trace: 2847.535189,2847.535189,2847.535189,2847.535189,2847.535189,2847.535189,2847.535188,2847.535188,2847.535188,2847.535188,
   ** Warning ** SimHVAC: Maximum iterations (20) exceeded for all HVAC loops, at ANNUAL, 02/17 23:00 - 23:08
   **   ~~~   ** The solution for one or more of the Air Loop HVAC systems did not appear to converge
   **   ~~~   ** Air System Named = CENTRAL SYSTEM did not converge for mass flow rate
   **   ~~~   ** Check values should be zero. Most Recent values listed first.
   **   ~~~   ** Demand-to-Supply interface mass flow rate check value iteration history trace: 7.264791E-002,7.264791E-002,7.264791E-002,7.264791E-002,7.264791E-002,7.264791E-002,7.264791E-002,7.264791E-002,7.264791E-002,7.264791E-002,
   **   ~~~   ** Supply-to-demand interface deck 1 mass flow rate check value iteration history trace: 7.264791E-002,7.264791E-002,7.264791E-002,7.264791E-002,7.264791E-002,7.264791E-002,7.264791E-002,7.264791E-002,7.264791E-002,7.264791E-002,
   **   ~~~   ** Air System Named = CENTRAL SYSTEM did not converge for energy
   **   ~~~   ** Check values should be zero. Most Recent values listed first.
   **   ~~~   ** Demand-to-Supply interface energy check value iteration history trace: 1356.892646,1356.892646,1356.892646,1356.892646,1356.892645,1356.892645,1356.892645,1356.892645,1356.892645,1356.892645,
   **   ~~~   ** Supply-to-demand interface deck 1 energy check value iteration history trace: 2431.459631,2431.459631,2431.459631,2431.459631,2431.459631,2431.459630,2431.459630,2431.459630,2431.459630,2431.459630,
   ** Warning ** SimHVAC: Maximum iterations (20) exceeded for all HVAC loops, at ANNUAL, 02/18 10:15 - 10:30
   **   ~~~   ** The solution for one or more of the Air Loop HVAC systems did not appear to converge
   **   ~~~   ** Air System Named = CENTRAL SYSTEM did not converge for mass flow rate
   **   ~~~   ** Check values should be zero. Most Recent values listed first.
   **   ~~~   ** Demand-to-Supply interface mass flow rate check value iteration history trace: 5.035600E-002,5.035600E-002,5.035600E-002,5.035600E-002,5.035600E-002,5.035600E-002,5.035600E-002,5.035600E-002,5.035600E-002,5.035600E-002,
   **   ~~~   ** Supply-to-demand interface deck 1 mass flow rate check value iteration history trace: 5.035600E-002,5.035600E-002,5.035600E-002,5.035600E-002,5.035600E-002,5.035600E-002,5.035600E-002,5.035600E-002,5.035600E-002,5.035600E-002,
   **   ~~~   ** Air System Named = CENTRAL SYSTEM did not converge for energy
   **   ~~~   ** Check values should be zero. Most Recent values listed first.
   **   ~~~   ** Demand-to-Supply interface energy check value iteration history trace: 996.574257,996.574257,996.574257,996.574257,996.574257,996.574257,996.574257,996.574257,996.574257,996.574257,
   **   ~~~   ** Supply-to-demand interface deck 1 energy check value iteration history trace: 1877.171321,1877.171321,1877.171321,1877.171320,1877.171320,1877.171320,1877.171320,1877.171320,1877.171320,1877.171320,
   ** Warning ** SimHVAC: Maximum iterations (20) exceeded for all HVAC loops, at ANNUAL, 02/19 09:15 - 09:20
   **   ~~~   ** The solution for one or more of the Air Loop HVAC systems did not appear to converge
   **   ~~~   ** Air System Named = CENTRAL SYSTEM did not converge for mass flow rate
   **   ~~~   ** Check values should be zero. Most Recent values listed first.
   **   ~~~   ** Demand-to-Supply interface mass flow rate check value iteration history trace: 0.110208,0.110208,0.110208,0.110208,0.110208,0.110208,0.110208,0.110208,0.110208,0.110208,
   **   ~~~   ** Supply-to-demand interface deck 1 mass flow rate check value iteration history trace: 0.110208,0.110208,0.110208,0.110208,0.110208,0.110208,0.110208,0.110208,0.110208,0.110208,
   **   ~~~   ** Air System Named = CENTRAL SYSTEM did not converge for energy
   **   ~~~   ** Check values should be zero. Most Recent values listed first.
   **   ~~~   ** Demand-to-Supply interface energy check value iteration history trace: 2163.403278,2163.403278,2163.403278,2163.403278,2163.403278,2163.403278,2163.403278,2163.403278,2163.403278,2163.403277,
   **   ~~~   ** Supply-to-demand interface deck 1 energy check value iteration history trace: 3433.480360,3433.480360,3433.480360,3433.480360,3433.480360,3433.480360,3433.480360,3433.480360,3433.480360,3433.480360,
   ** Warning ** SimHVAC: Maximum iterations (20) exceeded for all HVAC loops, at ANNUAL, 04/11 07:45 - 07:52
   **   ~~~   ** The solution for one or more of the Air Loop HVAC systems did not appear to converge
   **   ~~~   ** Air System Named = CENTRAL SYSTEM did not converge for mass flow rate
   **   ~~~   ** Check values should be zero. Most Recent values listed first.
   **   ~~~   ** Demand-to-Supply interface mass flow rate check value iteration history trace: 6.744411E-002,6.744411E-002,6.744411E-002,6.744411E-002,6.744411E-002,6.744411E-002,6.744411E-002,6.744411E-002,6.744411E-002,6.744411E-002,
   **   ~~~   ** Supply-to-demand interface deck 1 mass flow rate check value iteration history trace: 6.744411E-002,6.744411E-002,6.744411E-002,6.744411E-002,6.744411E-002,6.744411E-002,6.744411E-002,6.744411E-002,6.744411E-002,6.744411E-002,
   **   ~~~   ** Air System Named = CENTRAL SYSTEM did not converge for energy
   **   ~~~   ** Check values should be zero. Most Recent values listed first.
   **   ~~~   ** Demand-to-Supply interface energy check value iteration history trace: 1574.495606,1574.495606,1574.495606,1574.495606,1574.495606,1574.495607,1574.495607,1574.495607,1574.495607,1574.495607,
   **   ~~~   ** Supply-to-demand interface deck 1 energy check value iteration history trace: 870.007480,870.007480,870.007480,870.007480,870.007480,870.007480,870.007480,870.007480,870.007481,870.007481,
   ** Warning ** SimHVAC: Maximum iterations (20) exceeded for all HVAC loops, at ANNUAL, 04/11 09:00 - 09:15
   **   ~~~   ** The solution for one or more of the Air Loop HVAC systems did not appear to converge
   **   ~~~   ** Air System Named = CENTRAL SYSTEM did not converge for mass flow rate
   **   ~~~   ** Check values should be zero. Most Recent values listed first.
   **   ~~~   ** Demand-to-Supply interface mass flow rate check value iteration history trace: 0.176887,0.176887,0.176887,0.176887,0.176887,0.176887,0.176887,0.176887,0.176887,0.176887,
   **   ~~~   ** Supply-to-demand interface deck 1 mass flow rate check value iteration history trace: 0.176887,0.176887,0.176887,0.176887,0.176887,0.176887,0.176887,0.176887,0.176887,0.176887,
   **   ~~~   ** Air System Named = CENTRAL SYSTEM did not converge for energy
   **   ~~~   ** Check values should be zero. Most Recent values listed first.
   **   ~~~   ** Demand-to-Supply interface energy check value iteration history trace: 4290.521106,4290.521107,4290.521107,4290.521107,4290.521108,4290.521108,4290.521108,4290.521109,4290.521109,4290.521109,
   **   ~~~   ** Supply-to-demand interface deck 1 energy check value iteration history trace: 2395.935566,2395.935566,2395.935567,2395.935567,2395.935567,2395.935567,2395.935567,2395.935567,2395.935568,2395.935568,
   ** Warning ** SimHVAC: Maximum iterations (20) exceeded for all HVAC loops, at ANNUAL, 04/22 10:20 - 10:25
   **   ~~~   ** The solution for one or more of the Air Loop HVAC systems did not appear to converge
   **   ~~~   ** Air System Named = CENTRAL SYSTEM did not converge for mass flow rate
   **   ~~~   ** Check values should be zero. Most Recent values listed first.
   **   ~~~   ** Demand-to-Supply interface mass flow rate check value iteration history trace: 0.108051,0.108051,0.108051,0.108051,0.108051,0.108051,0.108051,0.108051,0.108051,0.108051,
   **   ~~~   ** Supply-to-demand interface deck 1 mass flow rate check value iteration history trace: 0.108051,0.108051,0.108051,0.108051,0.108051,0.108051,0.108051,0.108051,0.108051,0.108051,
   **   ~~~   ** Air System Named = CENTRAL SYSTEM did not converge for energy
   **   ~~~   ** Check values should be zero. Most Recent values listed first.
   **   ~~~   ** Demand-to-Supply interface energy check value iteration history trace: 2559.598181,2559.598182,2559.598182,2559.598183,2559.598183,2559.598184,2559.598184,2559.598185,2559.598185,2559.598186,
   **   ~~~   ** Supply-to-demand interface deck 1 energy check value iteration history trace: 1231.496634,1231.496635,1231.496635,1231.496635,1231.496635,1231.496636,1231.496636,1231.496636,1231.496636,1231.496637,
   ** Warning ** SimHVAC: Maximum iterations (20) exceeded for all HVAC loops, at ANNUAL, 11/07 08:15 - 08:17
   **   ~~~   ** The solution for one or more of the Air Loop HVAC systems did not appear to converge
   **   ~~~   ** Air System Named = CENTRAL SYSTEM did not converge for mass flow rate
   **   ~~~   ** Check values should be zero. Most Recent values listed first.
   **   ~~~   ** Demand-to-Supply interface mass flow rate check value iteration history trace: 8.526787E-002,8.526787E-002,8.526787E-002,8.526787E-002,8.526787E-002,8.526787E-002,8.526787E-002,8.526787E-002,8.526787E-002,8.526787E-002,
   **   ~~~   ** Supply-to-demand interface deck 1 mass flow rate check value iteration history trace: 8.526787E-002,8.526787E-002,8.526787E-002,8.526787E-002,8.526787E-002,8.526787E-002,8.526787E-002,8.526787E-002,8.526787E-002,8.526787E-002,
   **   ~~~   ** Air System Named = CENTRAL SYSTEM did not converge for energy
   **   ~~~   ** Check values should be zero. Most Recent values listed first.
   **   ~~~   ** Demand-to-Supply interface energy check value iteration history trace: 1684.955681,1684.955681,1684.955681,1684.955681,1684.955681,1684.955681,1684.955681,1684.955681,1684.955681,1684.955681,
   **   ~~~   ** Supply-to-demand interface deck 1 energy check value iteration history trace: 2841.877183,2841.877183,2841.877183,2841.877183,2841.877183,2841.877183,2841.877183,2841.877182,2841.877182,2841.877182,
   ** Warning ** SimHVAC: Maximum iterations (20) exceeded for all HVAC loops, at ANNUAL, 11/18 19:38 - 19:45
   **   ~~~   ** The solution for one or more of the Air Loop HVAC systems did not appear to converge
   **   ~~~   ** Air System Named = CENTRAL SYSTEM did not converge for mass flow rate
   **   ~~~   ** Check values should be zero. Most Recent values listed first.
   **   ~~~   ** Demand-to-Supply interface mass flow rate check value iteration history trace: 0.106599,0.106599,0.106599,0.106599,0.106599,0.106599,0.106599,0.106599,0.106599,0.106599,
   **   ~~~   ** Supply-to-demand interface deck 1 mass flow rate check value iteration history trace: 0.106599,0.106599,0.106599,0.106599,0.106599,0.106599,0.106599,0.106599,0.106599,0.106599,
   **   ~~~   ** Air System Named = CENTRAL SYSTEM did not converge for energy
   **   ~~~   ** Check values should be zero. Most Recent values listed first.
   **   ~~~   ** Demand-to-Supply interface energy check value iteration history trace: 2500.720688,2500.720689,2500.720689,2500.720689,2500.720690,2500.720690,2500.720690,2500.720691,2500.720691,2500.720691,
   **   ~~~   ** Supply-to-demand interface deck 1 energy check value iteration history trace: 1147.034217,1147.034217,1147.034217,1147.034218,1147.034218,1147.034218,1147.034218,1147.034218,1147.034218,1147.034218,
   ** Warning ** SimHVAC: Maximum iterations (20) exceeded for all HVAC loops, at ANNUAL, 11/19 21:30 - 21:45
   **   ~~~   ** The solution for one or more of the Air Loop HVAC systems did not appear to converge
   **   ~~~   ** Air System Named = CENTRAL SYSTEM did not converge for mass flow rate
   **   ~~~   ** Check values should be zero. Most Recent values listed first.
   **   ~~~   ** Demand-to-Supply interface mass flow rate check value iteration history trace: 1.680729E-002,1.680729E-002,1.680729E-002,1.680729E-002,1.680729E-002,1.680729E-002,1.680729E-002,1.680729E-002,1.680729E-002,1.680729E-002,
   **   ~~~   ** Supply-to-demand interface deck 1 mass flow rate check value iteration history trace: 1.680729E-002,1.680729E-002,1.680729E-002,1.680729E-002,1.680729E-002,1.680729E-002,1.680729E-002,1.680729E-002,1.680729E-002,1.680729E-002,
   **   ~~~   ** Air System Named = CENTRAL SYSTEM did not converge for energy
   **   ~~~   ** Check values should be zero. Most Recent values listed first.
   **   ~~~   ** Demand-to-Supply interface energy check value iteration history trace: 387.488026,387.488026,387.488026,387.488026,387.488026,387.488026,387.488027,387.488027,387.488027,387.488027,
   **   ~~~   ** Supply-to-demand interface deck 1 energy check value iteration history trace: 176.840641,176.840641,176.840641,176.840641,176.840641,176.840641,176.840641,176.840641,176.840641,176.840641,
   ** Warning ** SimHVAC: Maximum iterations (20) exceeded for all HVAC loops, at ANNUAL, 11/25 10:25 - 10:30
   **   ~~~   ** The solution for one or more of the Air Loop HVAC systems did not appear to converge
   **   ~~~   ** Air System Named = CENTRAL SYSTEM did not converge for mass flow rate
   **   ~~~   ** Check values should be zero. Most Recent values listed first.
   **   ~~~   ** Demand-to-Supply interface mass flow rate check value iteration history trace: 0.192568,0.192568,0.192568,0.192568,0.192568,0.192568,0.192568,0.192568,0.192568,0.192568,
   **   ~~~   ** Supply-to-demand interface deck 1 mass flow rate check value iteration history trace: 0.192568,0.192568,0.192568,0.192568,0.192568,0.192568,0.192568,0.192568,0.192568,0.192568,
   **   ~~~   ** Air System Named = CENTRAL SYSTEM did not converge for energy
   **   ~~~   ** Check values should be zero. Most Recent values listed first.
   **   ~~~   ** Demand-to-Supply interface energy check value iteration history trace: 4583.457673,4583.457673,4583.457673,4583.457674,4583.457674,4583.457674,4583.457675,4583.457675,4583.457676,4583.457676,
   **   ~~~   ** Supply-to-demand interface deck 1 energy check value iteration history trace: 2617.694527,2617.694527,2617.694528,2617.694528,2617.694528,2617.694528,2617.694529,2617.694529,2617.694529,2617.694529,
   ** Warning ** SimHVAC: Maximum iterations (20) exceeded for all HVAC loops, at ANNUAL, 12/10 20:23 - 20:30
   **   ~~~   ** The solution for one or more of the Air Loop HVAC systems did not appear to converge
   **   ~~~   ** Air System Named = CENTRAL SYSTEM did not converge for mass flow rate
   **   ~~~   ** Check values should be zero. Most Recent values listed first.
   **   ~~~   ** Demand-to-Supply interface mass flow rate check value iteration history trace: 0.108821,0.108821,0.108821,0.108821,0.108821,0.108821,0.108821,0.108821,0.108821,0.108821,
   **   ~~~   ** Supply-to-demand interface deck 1 mass flow rate check value iteration history trace: 0.108821,0.108821,0.108821,0.108821,0.108821,0.108821,0.108821,0.108821,0.108821,0.108821,
   **   ~~~   ** Air System Named = CENTRAL SYSTEM did not converge for energy
   **   ~~~   ** Check values should be zero. Most Recent values listed first.
   **   ~~~   ** Demand-to-Supply interface energy check value iteration history trace: 2142.755449,2142.755449,2142.755449,2142.755449,2142.755449,2142.755448,2142.755448,2142.755448,2142.755448,2142.755448,
   **   ~~~   ** Supply-to-demand interface deck 1 energy check value iteration history trace: 3240.533882,3240.533882,3240.533882,3240.533882,3240.533881,3240.533881,3240.533881,3240.533881,3240.533880,3240.533880,
   ************* Simulation Error Summary *************
   ** Warning ** The following Report Variables were requested but not generated -- check.rdd file
   **   ~~~   ** Either the IDF did not contain these elements, the variable name is misspelled,
   **   ~~~   ** or the requested variable is an advanced output which requires Output : Diagnostics, DisplayAdvancedReportVariables;
   ************* Key=*, VarName=BASEBOARD TOTAL HEATING ENERGY, Frequency=
   ************* Key=*, VarName=WATER HEATER NATURALGAS ENERGY, Frequency=
   ************* Key=*, VarName=COOLING COIL TOTAL HEATING ENERGY, Frequency=
   ************* There are 34 unused schedules in input.
   ************* There are 388 unused week schedules in input.
   ************* There are 396 unused day schedules in input.
   ************* Use Output:Diagnostics,DisplayUnusedSchedules; to see them.
   *************
   ************* ===== Recurring Error Summary =====
   ************* The following recurring error messages occurred.
   *************
   *************  ** Warning ** "TOTAL HOT WATER LOAD" - Target water temperature should be less than or equal to the hot water temperature error continues...
   *************  **   ~~~   **   This error occurred 122087 total times;
   *************  **   ~~~   **   during Warmup 0 times;
   *************  **   ~~~   **   during Sizing 0 times.
   *************  **   ~~~   **   Max=8.27219  Min=4.606744E-005
   *************
   *************
   ************* ===== Final Error Summary =====
   ************* The following error categories occurred.  Consider correcting or noting.
   ************* Nominally Unused Constructions
   ************* ..The nominally unused constructions warning is provided to alert you to potential conditions that can cause
   ************* ..extra time during simulation. Each construction is calculated by the algorithm indicated in the HeatBalanceAlgorithm
   ************* ..object. You may remove the constructions indicated (when you use the DisplayExtraWarnings option).
   *************
   ************* EnergyPlus Warmup Error Summary. During Warmup: 1 Warning; 0 Severe Errors.
   ************* EnergyPlus Sizing Error Summary. During Sizing: 4 Warning; 0 Severe Errors.
   ************* EnergyPlus Completed Successfully-- 122117 Warning; 0 Severe Errors; Elapsed Time=00hr 06min  7.47sec
