Program Version,EnergyPlus, Version 22.2.0-c249759bad, YMD=2023.09.01 19:33,
   ************* Beginning Zone Sizing Calculations
   ** Warning ** ProcessScheduleInput: Schedule:Constant="ALWAYS ON DISCRETE", Schedule Type Limits Name="ONOFF" not found -- will not be validated
   ** Warning ** Foundation:Kiva="KIVA FOUNDATION", no Interior Horizontal Insulation Material Name defined
   **   ~~~   ** Interior Horizontal Insulation Depth will not be used.
   ** Warning ** CheckUsedConstructions: There are 15 nominally unused constructions in input.
   **   ~~~   ** Each Unused construction is shown.
   ************* Construction=INTERIOR FLOOR
   ************* Construction=INTERIOR WINDOW
   ************* Construction=EXTERIOR DOOR
   ************* Construction=INTERIOR DOOR
   ************* Construction=GABLE CONSTRUCTION
   ************* Construction=CRAWL_FLOOR
   ************* Construction=INSULATED PIPE
   ************* Construction=PLAIN PIPE
   ************* Construction=TDD PIPE
   ************* Construction=TDD DOME
   ************* Construction=TDD DIFFUSER
   ************* Construction=CRAWL WALL
   ************* Construction=CEILING-FLOOR-LAYER
   ************* Construction=SLAB CONSTRUCTION W FULL R10 INSULATION
   ************* Construction=SLAB CONSTRUCTION W FULL R5 INSULATION
   ** Warning ** GetDXCoils: Coil:Heating:DX:SingleSpeed="DX_HEATING_COIL" curve values
   **   ~~~   ** ... Defrost Energy Input Ratio Function of Temperature Curve Name = DEFROSTEIR output is not equal to 1.0 (+ or - 10%) at rated conditions.
   **   ~~~   ** ... Curve output at rated conditions = 0.152
   ************* Beginning System Sizing Calculations
   ************* Beginning Plant Sizing Calculations
   ** Warning ** Coil:WaterHeating:AirToWaterHeatPump:Wrapped "HEAT PUMP WATER HEATER EVAPORATOR": Rated air volume flow rate per watt of rated total water heating capacity is out of range
   **   ~~~   ** Min Rated Vol Flow Per Watt=[4.027E-005], Rated Vol Flow Per Watt=[1.510E-004], Max Rated Vol Flow Per Watt=[8.056E-005]. See Input-Output Reference Manual for valid range.
   ************* SizeFan: : Potential issue with equipment sizing for Fan:OnOff HEAT PUMP WATER HEATER FAN
   **   ~~~   ** User-Specified Maximum Flow Rate [m3/s] = 0.22653
   **   ~~~   ** differs from Design Size Maximum Flow Rate [m3/s] = 7.55250E-002
   **   ~~~   ** This may, or may not, indicate mismatched component sizes.
   **   ~~~   ** Verify that the value entered is intended and is consistent with other components.
   ** Warning ** Water heater = WATER HEATER TANK:  Recovery Efficiency and Energy Factor could not be calculated during the test for standard ratings
   **   ~~~   ** Setpoint was never recovered and/or heater never turned on
   ** Warning ** Check input. Pump nominal power or motor efficiency is set to 0, for pump=MAINS PRESSURE
   ** Warning ** Output:Meter: invalid Key Name="ELECTRIC_RANGE:INTERIOREQUIPMENT:ELECTRICITY" - not found.
   ** Warning ** Output:Meter: invalid Key Name="ELECTRIC_DRYER:INTERIOREQUIPMENT:ELECTRICITY" - not found.
   ** Warning ** Output:Meter: invalid Key Name="HEATRECOVERY:ELECTRICITY" - not found.
   ** Warning ** Output:Meter: invalid Key Name="HEATING:NATURALGAS" - not found.
   ** Warning ** Output:Meter: invalid Key Name="WATERSYSTEMS:NATURALGAS" - not found.
   ** Warning ** Output:Meter: invalid Key Name="PROPANE:FACILITY" - not found.
   ** Warning ** Output:Meter: invalid Key Name="HEATING:PROPANE" - not found.
   ************* Testing Individual Branch Integrity
   ************* All Branches passed integrity testing
   ************* Testing Individual Supply Air Path Integrity
   ************* All Supply Air Paths passed integrity testing
   ************* Testing Individual Return Air Path Integrity
   ************* All Return Air Paths passed integrity testing
   ************* No node connection errors were found.
   ************* Beginning Simulation
   ** Warning ** AirflowNetwork::Solver::validate_distribution: Heat pump water heater is simulated along with an AirflowNetwork but is not included in the AirflowNetwork.
   ** Warning ** CalcEquipmentFlowRates: "TOTAL HOT WATER LOAD" - Target water temperature is greater than the hot water temperature by (0.24 C)
   **   ~~~   **  Environment=EXTREME_WINTER, at Simulation time=01/06 06:00 - 06:15
   **   ~~~   ** ...target water temperature     = 53.33 C
   **   ~~~   ** ...hot water temperature        = 53.09 C
   **   ~~~   ** ...Target water temperature should be less than or equal to the hot water temperature. Verify temperature setpoints and schedules.
   ** Warning ** SimHVAC: Maximum iterations (20) exceeded for all HVAC loops, at ANNUAL, 01/15 13:15 - 13:22
   **   ~~~   ** The solution for one or more of the Air Loop HVAC systems did not appear to converge
   **   ~~~   ** Air System Named = CENTRAL SYSTEM did not converge for mass flow rate
   **   ~~~   ** Check values should be zero. Most Recent values listed first.
   **   ~~~   ** Demand-to-Supply interface mass flow rate check value iteration history trace: 7.015890E-002,7.015890E-002,7.015890E-002,7.015890E-002,7.015890E-002,7.015890E-002,7.015890E-002,7.015890E-002,7.015890E-002,7.015890E-002,
   **   ~~~   ** Supply-to-demand interface deck 1 mass flow rate check value iteration history trace: 7.015890E-002,7.015890E-002,7.015890E-002,7.015890E-002,7.015890E-002,7.015890E-002,7.015890E-002,7.015890E-002,7.015890E-002,7.015890E-002,
   **   ~~~   ** Air System Named = CENTRAL SYSTEM did not converge for energy
   **   ~~~   ** Check values should be zero. Most Recent values listed first.
   **   ~~~   ** Demand-to-Supply interface energy check value iteration history trace: 1390.179119,1390.179119,1390.179119,1390.179119,1390.179119,1390.179119,1390.179118,1390.179118,1390.179118,1390.179118,
   **   ~~~   ** Supply-to-demand interface deck 1 energy check value iteration history trace: 2156.585649,2156.585649,2156.585648,2156.585648,2156.585648,2156.585648,2156.585648,2156.585648,2156.585648,2156.585647,
   ** Warning ** SimHVAC: Maximum iterations (20) exceeded for all HVAC loops, at ANNUAL, 01/22 17:15 - 17:18
   **   ~~~   ** The solution for one or more of the Air Loop HVAC systems did not appear to converge
   **   ~~~   ** Air System Named = CENTRAL SYSTEM did not converge for mass flow rate
   **   ~~~   ** Check values should be zero. Most Recent values listed first.
   **   ~~~   ** Demand-to-Supply interface mass flow rate check value iteration history trace: 7.696979E-002,7.696979E-002,7.696979E-002,7.696979E-002,7.696979E-002,7.696979E-002,7.696979E-002,7.696979E-002,7.696979E-002,7.696979E-002,
   **   ~~~   ** Supply-to-demand interface deck 1 mass flow rate check value iteration history trace: 7.696979E-002,7.696979E-002,7.696979E-002,7.696979E-002,7.696979E-002,7.696979E-002,7.696979E-002,7.696979E-002,7.696979E-002,7.696979E-002,
   **   ~~~   ** Air System Named = CENTRAL SYSTEM did not converge for energy
   **   ~~~   ** Check values should be zero. Most Recent values listed first.
   **   ~~~   ** Demand-to-Supply interface energy check value iteration history trace: 1520.478777,1520.478777,1520.478777,1520.478777,1520.478776,1520.478776,1520.478776,1520.478776,1520.478776,1520.478776,
   **   ~~~   ** Supply-to-demand interface deck 1 energy check value iteration history trace: 2414.869530,2414.869530,2414.869530,2414.869529,2414.869529,2414.869529,2414.869529,2414.869529,2414.869529,2414.869529,
   ** Warning ** SimHVAC: Maximum iterations (20) exceeded for all HVAC loops, at ANNUAL, 02/15 12:35 - 12:40
   **   ~~~   ** The solution for one or more of the Air Loop HVAC systems did not appear to converge
   **   ~~~   ** Air System Named = CENTRAL SYSTEM did not converge for mass flow rate
   **   ~~~   ** Check values should be zero. Most Recent values listed first.
   **   ~~~   ** Demand-to-Supply interface mass flow rate check value iteration history trace: 5.684072E-002,5.684072E-002,5.684072E-002,5.684072E-002,5.684072E-002,5.684072E-002,5.684072E-002,5.684072E-002,5.684072E-002,5.684072E-002,
   **   ~~~   ** Supply-to-demand interface deck 1 mass flow rate check value iteration history trace: 5.684072E-002,5.684072E-002,5.684072E-002,5.684072E-002,5.684072E-002,5.684072E-002,5.684072E-002,5.684072E-002,5.684072E-002,5.684072E-002,
   **   ~~~   ** Air System Named = CENTRAL SYSTEM did not converge for energy
   **   ~~~   ** Check values should be zero. Most Recent values listed first.
   **   ~~~   ** Demand-to-Supply interface energy check value iteration history trace: 1126.409552,1126.409552,1126.409552,1126.409552,1126.409552,1126.409552,1126.409552,1126.409552,1126.409552,1126.409552,
   **   ~~~   ** Supply-to-demand interface deck 1 energy check value iteration history trace: 1914.604868,1914.604868,1914.604868,1914.604868,1914.604868,1914.604868,1914.604868,1914.604868,1914.604868,1914.604868,
   ** Warning ** SimHVAC: Maximum iterations (20) exceeded for all HVAC loops, at ANNUAL, 02/17 11:47 - 11:49
   **   ~~~   ** The solution for one or more of the Air Loop HVAC systems did not appear to converge
   **   ~~~   ** Air System Named = CENTRAL SYSTEM did not converge for mass flow rate
   **   ~~~   ** Check values should be zero. Most Recent values listed first.
   **   ~~~   ** Demand-to-Supply interface mass flow rate check value iteration history trace: 7.512824E-002,7.512824E-002,7.512824E-002,7.512824E-002,7.512824E-002,7.512824E-002,7.512824E-002,7.512824E-002,7.512824E-002,7.512824E-002,
   **   ~~~   ** Supply-to-demand interface deck 1 mass flow rate check value iteration history trace: 7.512824E-002,7.512824E-002,7.512824E-002,7.512824E-002,7.512824E-002,7.512824E-002,7.512824E-002,7.512824E-002,7.512824E-002,7.512824E-002,
   **   ~~~   ** Air System Named = CENTRAL SYSTEM did not converge for energy
   **   ~~~   ** Check values should be zero. Most Recent values listed first.
   **   ~~~   ** Demand-to-Supply interface energy check value iteration history trace: 1488.925996,1488.925996,1488.925996,1488.925996,1488.925996,1488.925996,1488.925996,1488.925996,1488.925995,1488.925995,
   **   ~~~   ** Supply-to-demand interface deck 1 energy check value iteration history trace: 2334.293566,2334.293566,2334.293566,2334.293566,2334.293566,2334.293566,2334.293565,2334.293565,2334.293565,2334.293565,
   ** Warning ** SimHVAC: Maximum iterations (20) exceeded for all HVAC loops, at ANNUAL, 02/26 13:30 - 13:45
   **   ~~~   ** The solution for one or more of the Air Loop HVAC systems did not appear to converge
   **   ~~~   ** Air System Named = CENTRAL SYSTEM did not converge for mass flow rate
   **   ~~~   ** Check values should be zero. Most Recent values listed first.
   **   ~~~   ** Demand-to-Supply interface mass flow rate check value iteration history trace: 4.381971E-002,4.381971E-002,4.381971E-002,4.381971E-002,4.381971E-002,4.381971E-002,4.381971E-002,4.381971E-002,4.381971E-002,4.381971E-002,
   **   ~~~   ** Supply-to-demand interface deck 1 mass flow rate check value iteration history trace: 4.381971E-002,4.381971E-002,4.381971E-002,4.381971E-002,4.381971E-002,4.381971E-002,4.381971E-002,4.381971E-002,4.381971E-002,4.381971E-002,
   **   ~~~   ** Air System Named = CENTRAL SYSTEM did not converge for energy
   **   ~~~   ** Check values should be zero. Most Recent values listed first.
   **   ~~~   ** Demand-to-Supply interface energy check value iteration history trace: 867.017488,867.017488,867.017488,867.017488,867.017488,867.017488,867.017488,867.017488,867.017488,867.017488,
   **   ~~~   ** Supply-to-demand interface deck 1 energy check value iteration history trace: 1510.747933,1510.747933,1510.747932,1510.747932,1510.747932,1510.747932,1510.747932,1510.747932,1510.747932,1510.747932,
   ** Warning ** SimHVAC: Maximum iterations (20) exceeded for all HVAC loops, at ANNUAL, 03/06 15:15 - 15:30
   **   ~~~   ** The solution for one or more of the Air Loop HVAC systems did not appear to converge
   **   ~~~   ** Air System Named = CENTRAL SYSTEM did not converge for mass flow rate
   **   ~~~   ** Check values should be zero. Most Recent values listed first.
   **   ~~~   ** Demand-to-Supply interface mass flow rate check value iteration history trace: 6.601676E-002,6.601676E-002,6.601676E-002,6.601676E-002,6.601676E-002,6.601676E-002,6.601676E-002,6.601676E-002,6.601676E-002,6.601676E-002,
   **   ~~~   ** Supply-to-demand interface deck 1 mass flow rate check value iteration history trace: 6.601676E-002,6.601676E-002,6.601676E-002,6.601676E-002,6.601676E-002,6.601676E-002,6.601676E-002,6.601676E-002,6.601676E-002,6.601676E-002,
   **   ~~~   ** Air System Named = CENTRAL SYSTEM did not converge for energy
   **   ~~~   ** Check values should be zero. Most Recent values listed first.
   **   ~~~   ** Demand-to-Supply interface energy check value iteration history trace: 1308.171439,1308.171439,1308.171439,1308.171439,1308.171439,1308.171439,1308.171439,1308.171439,1308.171439,1308.171439,
   **   ~~~   ** Supply-to-demand interface deck 1 energy check value iteration history trace: 2250.567368,2250.567368,2250.567368,2250.567368,2250.567368,2250.567368,2250.567368,2250.567368,2250.567368,2250.567367,
   ** Warning ** SimHVAC: Maximum iterations (20) exceeded for all HVAC loops, at ANNUAL, 03/10 15:30 - 15:45
   **   ~~~   ** The solution for one or more of the Air Loop HVAC systems did not appear to converge
   **   ~~~   ** Air System Named = CENTRAL SYSTEM did not converge for mass flow rate
   **   ~~~   ** Check values should be zero. Most Recent values listed first.
   **   ~~~   ** Demand-to-Supply interface mass flow rate check value iteration history trace: 9.558087E-002,9.558087E-002,9.558087E-002,9.558087E-002,9.558087E-002,9.558087E-002,9.558087E-002,9.558087E-002,9.558087E-002,9.558087E-002,
   **   ~~~   ** Supply-to-demand interface deck 1 mass flow rate check value iteration history trace: 9.558087E-002,9.558087E-002,9.558087E-002,9.558087E-002,9.558087E-002,9.558087E-002,9.558087E-002,9.558087E-002,9.558087E-002,9.558087E-002,
   **   ~~~   ** Air System Named = CENTRAL SYSTEM did not converge for energy
   **   ~~~   ** Check values should be zero. Most Recent values listed first.
   **   ~~~   ** Demand-to-Supply interface energy check value iteration history trace: 1892.166942,1892.166942,1892.166942,1892.166942,1892.166942,1892.166941,1892.166941,1892.166941,1892.166941,1892.166941,
   **   ~~~   ** Supply-to-demand interface deck 1 energy check value iteration history trace: 2930.050492,2930.050492,2930.050492,2930.050492,2930.050491,2930.050491,2930.050491,2930.050491,2930.050491,2930.050490,
   ** Warning ** SimHVAC: Maximum iterations (20) exceeded for all HVAC loops, at ANNUAL, 03/12 19:53 - 20:00
   **   ~~~   ** The solution for one or more of the Air Loop HVAC systems did not appear to converge
   **   ~~~   ** Air System Named = CENTRAL SYSTEM did not converge for mass flow rate
   **   ~~~   ** Check values should be zero. Most Recent values listed first.
   **   ~~~   ** Demand-to-Supply interface mass flow rate check value iteration history trace: 9.484257E-002,9.484257E-002,9.484257E-002,9.484257E-002,9.484257E-002,9.484257E-002,9.484257E-002,9.484257E-002,9.484257E-002,9.484257E-002,
   **   ~~~   ** Supply-to-demand interface deck 1 mass flow rate check value iteration history trace: 9.484257E-002,9.484257E-002,9.484257E-002,9.484257E-002,9.484257E-002,9.484257E-002,9.484257E-002,9.484257E-002,9.484257E-002,9.484257E-002,
   **   ~~~   ** Air System Named = CENTRAL SYSTEM did not converge for energy
   **   ~~~   ** Check values should be zero. Most Recent values listed first.
   **   ~~~   ** Demand-to-Supply interface energy check value iteration history trace: 1879.330102,1879.330102,1879.330102,1879.330102,1879.330102,1879.330102,1879.330102,1879.330102,1879.330102,1879.330102,
   **   ~~~   ** Supply-to-demand interface deck 1 energy check value iteration history trace: 2976.450974,2976.450973,2976.450973,2976.450973,2976.450973,2976.450973,2976.450973,2976.450973,2976.450973,2976.450973,
   ** Warning ** SimHVAC: Maximum iterations (20) exceeded for all HVAC loops, at ANNUAL, 03/15 16:38 - 16:45
   **   ~~~   ** The solution for one or more of the Air Loop HVAC systems did not appear to converge
   **   ~~~   ** Air System Named = CENTRAL SYSTEM did not converge for mass flow rate
   **   ~~~   ** Check values should be zero. Most Recent values listed first.
   **   ~~~   ** Demand-to-Supply interface mass flow rate check value iteration history trace: 2.217335E-002,2.217335E-002,2.217335E-002,2.217335E-002,2.217335E-002,2.217335E-002,2.217335E-002,2.217335E-002,2.217335E-002,2.217335E-002,
   **   ~~~   ** Supply-to-demand interface deck 1 mass flow rate check value iteration history trace: 2.217335E-002,2.217335E-002,2.217335E-002,2.217335E-002,2.217335E-002,2.217335E-002,2.217335E-002,2.217335E-002,2.217335E-002,2.217335E-002,
   **   ~~~   ** Air System Named = CENTRAL SYSTEM did not converge for energy
   **   ~~~   ** Check values should be zero. Most Recent values listed first.
   **   ~~~   ** Demand-to-Supply interface energy check value iteration history trace: 436.303647,436.303647,436.303647,436.303647,436.303647,436.303647,436.303647,436.303647,436.303647,436.303647,
   **   ~~~   ** Supply-to-demand interface deck 1 energy check value iteration history trace: 761.731149,761.731149,761.731149,761.731149,761.731149,761.731149,761.731149,761.731149,761.731149,761.731149,
   ** Warning ** SimHVAC: Maximum iterations (20) exceeded for all HVAC loops, at ANNUAL, 03/28 04:30 - 04:45
   **   ~~~   ** The solution for one or more of the Air Loop HVAC systems did not appear to converge
   **   ~~~   ** Air System Named = CENTRAL SYSTEM did not converge for mass flow rate
   **   ~~~   ** Check values should be zero. Most Recent values listed first.
   **   ~~~   ** Demand-to-Supply interface mass flow rate check value iteration history trace: 2.295186E-002,2.295186E-002,2.295186E-002,2.295186E-002,2.295186E-002,2.295186E-002,2.295186E-002,2.295186E-002,2.295186E-002,2.295186E-002,
   **   ~~~   ** Supply-to-demand interface deck 1 mass flow rate check value iteration history trace: 2.295186E-002,2.295186E-002,2.295186E-002,2.295186E-002,2.295186E-002,2.295186E-002,2.295186E-002,2.295186E-002,2.295186E-002,2.295186E-002,
   **   ~~~   ** Air System Named = CENTRAL SYSTEM did not converge for energy
   **   ~~~   ** Check values should be zero. Most Recent values listed first.
   **   ~~~   ** Demand-to-Supply interface energy check value iteration history trace: 428.640489,428.640489,428.640489,428.640489,428.640489,428.640489,428.640489,428.640489,428.640489,428.640489,
   **   ~~~   ** Supply-to-demand interface deck 1 energy check value iteration history trace: 770.116981,770.116981,770.116981,770.116981,770.116981,770.116981,770.116981,770.116981,770.116981,770.116981,
   ** Warning ** SimHVAC: Maximum iterations (20) exceeded for all HVAC loops, at ANNUAL, 04/05 08:32 - 08:34
   **   ~~~   ** The solution for one or more of the Air Loop HVAC systems did not appear to converge
   **   ~~~   ** Air System Named = CENTRAL SYSTEM did not converge for mass flow rate
   **   ~~~   ** Check values should be zero. Most Recent values listed first.
   **   ~~~   ** Demand-to-Supply interface mass flow rate check value iteration history trace: 6.866922E-002,6.866922E-002,6.866922E-002,6.866922E-002,6.866922E-002,6.866922E-002,6.866922E-002,6.866922E-002,6.866922E-002,6.866922E-002,
   **   ~~~   ** Supply-to-demand interface deck 1 mass flow rate check value iteration history trace: 6.866922E-002,6.866922E-002,6.866922E-002,6.866922E-002,6.866922E-002,6.866922E-002,6.866922E-002,6.866922E-002,6.866922E-002,6.866922E-002,
   **   ~~~   ** Air System Named = CENTRAL SYSTEM did not converge for energy
   **   ~~~   ** Check values should be zero. Most Recent values listed first.
   **   ~~~   ** Demand-to-Supply interface energy check value iteration history trace: 1360.885644,1360.885644,1360.885644,1360.885644,1360.885644,1360.885644,1360.885644,1360.885644,1360.885644,1360.885644,
   **   ~~~   ** Supply-to-demand interface deck 1 energy check value iteration history trace: 2302.306032,2302.306032,2302.306032,2302.306031,2302.306031,2302.306031,2302.306031,2302.306031,2302.306031,2302.306031,
   ** Warning ** SimHVAC: Maximum iterations (20) exceeded for all HVAC loops, at ANNUAL, 04/12 08:00 - 08:05
   **   ~~~   ** The solution for one or more of the Air Loop HVAC systems did not appear to converge
   **   ~~~   ** Air System Named = CENTRAL SYSTEM did not converge for mass flow rate
   **   ~~~   ** Check values should be zero. Most Recent values listed first.
   **   ~~~   ** Demand-to-Supply interface mass flow rate check value iteration history trace: 6.081533E-002,6.081533E-002,6.081533E-002,6.081533E-002,6.081533E-002,6.081533E-002,6.081533E-002,6.081533E-002,6.081533E-002,6.081533E-002,
   **   ~~~   ** Supply-to-demand interface deck 1 mass flow rate check value iteration history trace: 6.081533E-002,6.081533E-002,6.081533E-002,6.081533E-002,6.081533E-002,6.081533E-002,6.081533E-002,6.081533E-002,6.081533E-002,6.081533E-002,
   **   ~~~   ** Air System Named = CENTRAL SYSTEM did not converge for energy
   **   ~~~   ** Check values should be zero. Most Recent values listed first.
   **   ~~~   ** Demand-to-Supply interface energy check value iteration history trace: 1202.496472,1202.496472,1202.496472,1202.496472,1202.496472,1202.496472,1202.496472,1202.496472,1202.496472,1202.496472,
   **   ~~~   ** Supply-to-demand interface deck 1 energy check value iteration history trace: 2140.554378,2140.554378,2140.554378,2140.554377,2140.554377,2140.554377,2140.554377,2140.554377,2140.554377,2140.554377,
   ** Warning ** SimHVAC: Maximum iterations (20) exceeded for all HVAC loops, at ANNUAL, 04/28 06:45 - 07:00
   **   ~~~   ** The solution for one or more of the Air Loop HVAC systems did not appear to converge
   **   ~~~   ** Air System Named = CENTRAL SYSTEM did not converge for mass flow rate
   **   ~~~   ** Check values should be zero. Most Recent values listed first.
   **   ~~~   ** Demand-to-Supply interface mass flow rate check value iteration history trace: 6.412652E-002,6.412652E-002,6.412652E-002,6.412652E-002,6.412652E-002,6.412652E-002,6.412652E-002,6.412652E-002,6.412652E-002,6.412652E-002,
   **   ~~~   ** Supply-to-demand interface deck 1 mass flow rate check value iteration history trace: 6.412652E-002,6.412652E-002,6.412652E-002,6.412652E-002,6.412652E-002,6.412652E-002,6.412652E-002,6.412652E-002,6.412652E-002,6.412652E-002,
   **   ~~~   ** Air System Named = CENTRAL SYSTEM did not converge for energy
   **   ~~~   ** Check values should be zero. Most Recent values listed first.
   **   ~~~   ** Demand-to-Supply interface energy check value iteration history trace: 1268.613148,1268.613148,1268.613148,1268.613148,1268.613148,1268.613147,1268.613147,1268.613147,1268.613147,1268.613146,
   **   ~~~   ** Supply-to-demand interface deck 1 energy check value iteration history trace: 2276.608426,2276.608426,2276.608426,2276.608425,2276.608425,2276.608425,2276.608424,2276.608424,2276.608423,2276.608423,
   **   ~~~   ** Node named ZONE INLET NODE shows oscillating temperatures across iterations with a repeated value of 35.330688
   **   ~~~   ** Node named ZONE INLET NODE temperature [C] iteration history trace (most recent first): 35.330688,35.330687,35.330687,35.330687,35.330687,35.330686,35.330686,35.330686,35.330686,35.330685,
   ** Warning ** SimHVAC: Maximum iterations (20) exceeded for all HVAC loops, at ANNUAL, 04/29 04:45 - 05:00
   **   ~~~   ** The solution for one or more of the Air Loop HVAC systems did not appear to converge
   **   ~~~   ** Air System Named = CENTRAL SYSTEM did not converge for mass flow rate
   **   ~~~   ** Check values should be zero. Most Recent values listed first.
   **   ~~~   ** Demand-to-Supply interface mass flow rate check value iteration history trace: 5.700096E-002,5.700096E-002,5.700096E-002,5.700096E-002,5.700096E-002,5.700096E-002,5.700096E-002,5.700096E-002,5.700096E-002,5.700096E-002,
   **   ~~~   ** Supply-to-demand interface deck 1 mass flow rate check value iteration history trace: 5.700096E-002,5.700096E-002,5.700096E-002,5.700096E-002,5.700096E-002,5.700096E-002,5.700096E-002,5.700096E-002,5.700096E-002,5.700096E-002,
   **   ~~~   ** Air System Named = CENTRAL SYSTEM did not converge for energy
   **   ~~~   ** Check values should be zero. Most Recent values listed first.
   **   ~~~   ** Demand-to-Supply interface energy check value iteration history trace: 1060.754351,1060.754350,1060.754350,1060.754350,1060.754350,1060.754350,1060.754350,1060.754350,1060.754350,1060.754350,
   **   ~~~   ** Supply-to-demand interface deck 1 energy check value iteration history trace: 1865.876941,1865.876941,1865.876941,1865.876941,1865.876941,1865.876941,1865.876941,1865.876940,1865.876940,1865.876940,
   ************* Simulation Error Summary *************
   ** Warning ** The following Report Variables were requested but not generated -- check.rdd file
   **   ~~~   ** Either the IDF did not contain these elements, the variable name is misspelled,
   **   ~~~   ** or the requested variable is an advanced output which requires Output : Diagnostics, DisplayAdvancedReportVariables;
   ************* Key=*, VarName=BASEBOARD TOTAL HEATING ENERGY, Frequency=
   ************* Key=*, VarName=WATER HEATER NATURALGAS ENERGY, Frequency=
   ************* Key=*, VarName=COOLING COIL TOTAL HEATING ENERGY, Frequency=
   ************* There are 34 unused schedules in input.
   ************* There are 388 unused week schedules in input.
   ************* There are 396 unused day schedules in input.
   ************* Use Output:Diagnostics,DisplayUnusedSchedules; to see them.
   *************
   ************* ===== Recurring Error Summary =====
   ************* The following recurring error messages occurred.
   *************
   *************  ** Warning ** "TOTAL HOT WATER LOAD" - Target water temperature should be less than or equal to the hot water temperature error continues...
   *************  **   ~~~   **   This error occurred 103615 total times;
   *************  **   ~~~   **   during Warmup 0 times;
   *************  **   ~~~   **   during Sizing 0 times.
   *************  **   ~~~   **   Max=9.86535  Min=1.690397E-003
   *************
   *************  ** Warning ** SimHVAC: Exceeding Maximum iterations for all HVAC loops, during ANNUAL continues
   *************  **   ~~~   **   This error occurred 11 total times;
   *************  **   ~~~   **   during Warmup 0 times;
   *************  **   ~~~   **   during Sizing 0 times.
   *************
   *************
   ************* ===== Final Error Summary =====
   ************* The following error categories occurred.  Consider correcting or noting.
   ************* Nominally Unused Constructions
   ************* ..The nominally unused constructions warning is provided to alert you to potential conditions that can cause
   ************* ..extra time during simulation. Each construction is calculated by the algorithm indicated in the HeatBalanceAlgorithm
   ************* ..object. You may remove the constructions indicated (when you use the DisplayExtraWarnings option).
   *************
   ************* EnergyPlus Warmup Error Summary. During Warmup: 1 Warning; 0 Severe Errors.
   ************* EnergyPlus Sizing Error Summary. During Sizing: 4 Warning; 0 Severe Errors.
   ************* EnergyPlus Completed Successfully-- 103657 Warning; 0 Severe Errors; Elapsed Time=00hr 01min 20.99sec
