Program Version,EnergyPlus, Version 22.2.0-c249759bad, YMD=2023.09.01 14:50,
   ************* Beginning Zone Sizing Calculations
   ** Warning ** ProcessScheduleInput: Schedule:Constant="ALWAYS ON DISCRETE", Schedule Type Limits Name="ONOFF" not found -- will not be validated
   ** Warning ** Foundation:Kiva="KIVA FOUNDATION", no Interior Horizontal Insulation Material Name defined
   **   ~~~   ** Interior Horizontal Insulation Depth will not be used.
   ** Warning ** CheckUsedConstructions: There are 15 nominally unused constructions in input.
   **   ~~~   ** Each Unused construction is shown.
   ************* Construction=INTERIOR FLOOR
   ************* Construction=INTERIOR WINDOW
   ************* Construction=EXTERIOR DOOR
   ************* Construction=INTERIOR DOOR
   ************* Construction=GABLE CONSTRUCTION
   ************* Construction=CRAWL_FLOOR
   ************* Construction=INSULATED PIPE
   ************* Construction=PLAIN PIPE
   ************* Construction=TDD PIPE
   ************* Construction=TDD DOME
   ************* Construction=TDD DIFFUSER
   ************* Construction=CRAWL WALL
   ************* Construction=CEILING-FLOOR-LAYER
   ************* Construction=SLAB CONSTRUCTION W FULL R10 INSULATION
   ************* Construction=SLAB CONSTRUCTION W FULL R5 INSULATION
   ** Warning ** GetDXCoils: Coil:Heating:DX:SingleSpeed="DX_HEATING_COIL" curve values
   **   ~~~   ** ... Defrost Energy Input Ratio Function of Temperature Curve Name = DEFROSTEIR output is not equal to 1.0 (+ or - 10%) at rated conditions.
   **   ~~~   ** ... Curve output at rated conditions = 0.152
   ************* Beginning System Sizing Calculations
   ************* Beginning Plant Sizing Calculations
   ** Warning ** SizeDXCoil Coil:Cooling:DX:SingleSpeed DX_COOLING_COIL
   **   ~~~   ** ...Gross Rated Total Cooling Capacity [W] will be limited by the maximum rated volume flow per rated total capacity ratio.
   **   ~~~   ** ...DX coil volume flow rate ( m3/s ) = 0.520456
   **   ~~~   ** ...Requested capacity ( W ) = 7504.890
   **   ~~~   ** ...Requested flow/capacity ratio ( m3/s/W ) = 6.934E-005
   **   ~~~   ** ...Maximum flow/capacity ratio ( m3/s/W ) = 6.041E-005
   **   ~~~   ** ...Adjusted capacity ( W ) = 8615.398
   ** Warning ** Coil:WaterHeating:AirToWaterHeatPump:Wrapped "HEAT PUMP WATER HEATER EVAPORATOR": Rated air volume flow rate per watt of rated total water heating capacity is out of range
   **   ~~~   ** Min Rated Vol Flow Per Watt=[4.027E-005], Rated Vol Flow Per Watt=[1.386E-004], Max Rated Vol Flow Per Watt=[8.056E-005]. See Input-Output Reference Manual for valid range.
   ** Warning ** Water heater = WATER HEATER TANK:  Recovery Efficiency and Energy Factor could not be calculated during the test for standard ratings
   **   ~~~   ** Setpoint was never recovered and/or heater never turned on
   ** Warning ** Check input. Pump nominal power or motor efficiency is set to 0, for pump=MAINS PRESSURE
   ** Warning ** Output:Meter: invalid Key Name="ELECTRIC_RANGE:INTERIOREQUIPMENT:ELECTRICITY" - not found.
   ** Warning ** Output:Meter: invalid Key Name="ELECTRIC_DRYER:INTERIOREQUIPMENT:ELECTRICITY" - not found.
   ** Warning ** Output:Meter: invalid Key Name="HEATRECOVERY:ELECTRICITY" - not found.
   ** Warning ** Output:Meter: invalid Key Name="HEATING:NATURALGAS" - not found.
   ** Warning ** Output:Meter: invalid Key Name="WATERSYSTEMS:NATURALGAS" - not found.
   ** Warning ** Output:Meter: invalid Key Name="PROPANE:FACILITY" - not found.
   ** Warning ** Output:Meter: invalid Key Name="HEATING:PROPANE" - not found.
   ************* Testing Individual Branch Integrity
   ************* All Branches passed integrity testing
   ************* Testing Individual Supply Air Path Integrity
   ************* All Supply Air Paths passed integrity testing
   ************* Testing Individual Return Air Path Integrity
   ************* All Return Air Paths passed integrity testing
   ************* No node connection errors were found.
   ************* Beginning Simulation
   ** Warning ** AirflowNetwork::Solver::validate_distribution: Heat pump water heater is simulated along with an AirflowNetwork but is not included in the AirflowNetwork.
   ** Warning ** CalcEquipmentFlowRates: "TOTAL HOT WATER LOAD" - Target water temperature is greater than the hot water temperature by (1.65 C)
   **   ~~~   **  Environment=EXTREME_WINTER, at Simulation time=12/15 06:00 - 06:15
   **   ~~~   ** ...target water temperature     = 53.33 C
   **   ~~~   ** ...hot water temperature        = 51.69 C
   **   ~~~   ** ...Target water temperature should be less than or equal to the hot water temperature. Verify temperature setpoints and schedules.
   ** Warning ** SimHVAC: Maximum iterations (20) exceeded for all HVAC loops, at ANNUAL, 01/31 20:38 - 20:45
   **   ~~~   ** The solution for one or more of the Air Loop HVAC systems did not appear to converge
   **   ~~~   ** Air System Named = CENTRAL SYSTEM did not converge for mass flow rate
   **   ~~~   ** Check values should be zero. Most Recent values listed first.
   **   ~~~   ** Demand-to-Supply interface mass flow rate check value iteration history trace: 0.104584,0.104584,0.104584,0.104584,0.104584,0.104584,0.104584,0.104584,0.104584,0.104584,
   **   ~~~   ** Supply-to-demand interface deck 1 mass flow rate check value iteration history trace: 0.104584,0.104584,0.104584,0.104584,0.104584,0.104584,0.104584,0.104584,0.104584,0.104584,
   **   ~~~   ** Air System Named = CENTRAL SYSTEM did not converge for energy
   **   ~~~   ** Check values should be zero. Most Recent values listed first.
   **   ~~~   ** Demand-to-Supply interface energy check value iteration history trace: 2058.516388,2058.516387,2058.516387,2058.516387,2058.516387,2058.516387,2058.516387,2058.516387,2058.516387,2058.516386,
   **   ~~~   ** Supply-to-demand interface deck 1 energy check value iteration history trace: 3141.323396,3141.323396,3141.323396,3141.323396,3141.323396,3141.323395,3141.323395,3141.323395,3141.323395,3141.323395,
   ** Warning ** SimHVAC: Maximum iterations (20) exceeded for all HVAC loops, at ANNUAL, 02/15 20:08 - 20:15
   **   ~~~   ** The solution for one or more of the Air Loop HVAC systems did not appear to converge
   **   ~~~   ** Air System Named = CENTRAL SYSTEM did not converge for mass flow rate
   **   ~~~   ** Check values should be zero. Most Recent values listed first.
   **   ~~~   ** Demand-to-Supply interface mass flow rate check value iteration history trace: 0.110808,0.110808,0.110808,0.110808,0.110808,0.110808,0.110808,0.110808,0.110808,0.110808,
   **   ~~~   ** Supply-to-demand interface deck 1 mass flow rate check value iteration history trace: 0.110808,0.110808,0.110808,0.110808,0.110808,0.110808,0.110808,0.110808,0.110808,0.110808,
   **   ~~~   ** Air System Named = CENTRAL SYSTEM did not converge for energy
   **   ~~~   ** Check values should be zero. Most Recent values listed first.
   **   ~~~   ** Demand-to-Supply interface energy check value iteration history trace: 2181.911866,2181.911866,2181.911865,2181.911865,2181.911865,2181.911865,2181.911865,2181.911865,2181.911865,2181.911864,
   **   ~~~   ** Supply-to-demand interface deck 1 energy check value iteration history trace: 3372.013571,3372.013570,3372.013570,3372.013570,3372.013570,3372.013570,3372.013569,3372.013569,3372.013569,3372.013569,
   ** Warning ** SimHVAC: Maximum iterations (20) exceeded for all HVAC loops, at ANNUAL, 03/27 19:08 - 19:15
   **   ~~~   ** The solution for one or more of the Air Loop HVAC systems did not appear to converge
   **   ~~~   ** Air System Named = CENTRAL SYSTEM did not converge for mass flow rate
   **   ~~~   ** Check values should be zero. Most Recent values listed first.
   **   ~~~   ** Demand-to-Supply interface mass flow rate check value iteration history trace: 5.986264E-002,5.986264E-002,5.986264E-002,5.986264E-002,5.986264E-002,5.986264E-002,5.986264E-002,5.986264E-002,5.986264E-002,5.986264E-002,
   **   ~~~   ** Supply-to-demand interface deck 1 mass flow rate check value iteration history trace: 5.986264E-002,5.986264E-002,5.986264E-002,5.986264E-002,5.986264E-002,5.986264E-002,5.986264E-002,5.986264E-002,5.986264E-002,5.986264E-002,
   **   ~~~   ** Air System Named = CENTRAL SYSTEM did not converge for energy
   **   ~~~   ** Check values should be zero. Most Recent values listed first.
   **   ~~~   ** Demand-to-Supply interface energy check value iteration history trace: 1185.459901,1185.459901,1185.459901,1185.459901,1185.459901,1185.459901,1185.459900,1185.459900,1185.459900,1185.459900,
   **   ~~~   ** Supply-to-demand interface deck 1 energy check value iteration history trace: 1834.294456,1834.294456,1834.294456,1834.294456,1834.294456,1834.294456,1834.294455,1834.294455,1834.294455,1834.294455,
   ** Warning ** SimHVAC: Maximum iterations (20) exceeded for all HVAC loops, at ANNUAL, 04/08 09:40 - 09:42
   **   ~~~   ** The solution for one or more of the Air Loop HVAC systems did not appear to converge
   **   ~~~   ** Air System Named = CENTRAL SYSTEM did not converge for mass flow rate
   **   ~~~   ** Check values should be zero. Most Recent values listed first.
   **   ~~~   ** Demand-to-Supply interface mass flow rate check value iteration history trace: 6.468220E-002,6.468220E-002,6.468220E-002,6.468220E-002,6.468220E-002,6.468220E-002,6.468220E-002,6.468220E-002,6.468220E-002,6.468220E-002,
   **   ~~~   ** Supply-to-demand interface deck 1 mass flow rate check value iteration history trace: 6.468220E-002,6.468220E-002,6.468220E-002,6.468220E-002,6.468220E-002,6.468220E-002,6.468220E-002,6.468220E-002,6.468220E-002,6.468220E-002,
   **   ~~~   ** Air System Named = CENTRAL SYSTEM did not converge for energy
   **   ~~~   ** Check values should be zero. Most Recent values listed first.
   **   ~~~   ** Demand-to-Supply interface energy check value iteration history trace: 1274.800832,1274.800832,1274.800832,1274.800832,1274.800832,1274.800832,1274.800832,1274.800832,1274.800832,1274.800832,
   **   ~~~   ** Supply-to-demand interface deck 1 energy check value iteration history trace: 2457.930804,2457.930803,2457.930803,2457.930803,2457.930803,2457.930803,2457.930803,2457.930803,2457.930803,2457.930803,
   ** Warning ** SimHVAC: Maximum iterations (20) exceeded for all HVAC loops, at ANNUAL, 04/18 09:00 - 09:05
   **   ~~~   ** The solution for one or more of the Air Loop HVAC systems did not appear to converge
   **   ~~~   ** Air System Named = CENTRAL SYSTEM did not converge for mass flow rate
   **   ~~~   ** Check values should be zero. Most Recent values listed first.
   **   ~~~   ** Demand-to-Supply interface mass flow rate check value iteration history trace: 6.396206E-002,6.396206E-002,6.396206E-002,6.396206E-002,6.396206E-002,6.396206E-002,6.396206E-002,6.396206E-002,6.396206E-002,6.396206E-002,
   **   ~~~   ** Supply-to-demand interface deck 1 mass flow rate check value iteration history trace: 6.396206E-002,6.396206E-002,6.396206E-002,6.396206E-002,6.396206E-002,6.396206E-002,6.396206E-002,6.396206E-002,6.396206E-002,6.396206E-002,
   **   ~~~   ** Air System Named = CENTRAL SYSTEM did not converge for energy
   **   ~~~   ** Check values should be zero. Most Recent values listed first.
   **   ~~~   ** Demand-to-Supply interface energy check value iteration history trace: 1260.493760,1260.493760,1260.493760,1260.493760,1260.493760,1260.493760,1260.493759,1260.493759,1260.493759,1260.493759,
   **   ~~~   ** Supply-to-demand interface deck 1 energy check value iteration history trace: 2320.214662,2320.214662,2320.214661,2320.214661,2320.214661,2320.214661,2320.214661,2320.214661,2320.214661,2320.214661,
   ** Warning ** SimHVAC: Maximum iterations (20) exceeded for all HVAC loops, at ANNUAL, 05/09 07:49 - 07:52
   **   ~~~   ** The solution for one or more of the Air Loop HVAC systems did not appear to converge
   **   ~~~   ** Air System Named = CENTRAL SYSTEM did not converge for mass flow rate
   **   ~~~   ** Check values should be zero. Most Recent values listed first.
   **   ~~~   ** Demand-to-Supply interface mass flow rate check value iteration history trace: 7.045883E-002,7.045883E-002,7.045883E-002,7.045883E-002,7.045883E-002,7.045883E-002,7.045883E-002,7.045883E-002,7.045883E-002,7.045883E-002,
   **   ~~~   ** Supply-to-demand interface deck 1 mass flow rate check value iteration history trace: 7.045883E-002,7.045883E-002,7.045883E-002,7.045883E-002,7.045883E-002,7.045883E-002,7.045883E-002,7.045883E-002,7.045883E-002,7.045883E-002,
   **   ~~~   ** Air System Named = CENTRAL SYSTEM did not converge for energy
   **   ~~~   ** Check values should be zero. Most Recent values listed first.
   **   ~~~   ** Demand-to-Supply interface energy check value iteration history trace: 1389.482706,1389.482706,1389.482706,1389.482706,1389.482706,1389.482706,1389.482706,1389.482706,1389.482706,1389.482706,
   **   ~~~   ** Supply-to-demand interface deck 1 energy check value iteration history trace: 2541.992109,2541.992109,2541.992109,2541.992109,2541.992109,2541.992109,2541.992109,2541.992109,2541.992108,2541.992108,
   ** Warning ** SimHVAC: Maximum iterations (20) exceeded for all HVAC loops, at ANNUAL, 06/03 10:20 - 10:25
   **   ~~~   ** The solution for one or more of the Air Loop HVAC systems did not appear to converge
   **   ~~~   ** Air System Named = CENTRAL SYSTEM did not converge for mass flow rate
   **   ~~~   ** Check values should be zero. Most Recent values listed first.
   **   ~~~   ** Demand-to-Supply interface mass flow rate check value iteration history trace: 0.145502,0.145502,0.145502,0.145502,0.145502,0.145502,0.145502,0.145502,0.145502,0.145502,
   **   ~~~   ** Supply-to-demand interface deck 1 mass flow rate check value iteration history trace: 0.145502,0.145502,0.145502,0.145502,0.145502,0.145502,0.145502,0.145502,0.145502,0.145502,
   **   ~~~   ** Air System Named = CENTRAL SYSTEM did not converge for energy
   **   ~~~   ** Check values should be zero. Most Recent values listed first.
   **   ~~~   ** Demand-to-Supply interface energy check value iteration history trace: 3477.590901,3477.590901,3477.590901,3477.590902,3477.590902,3477.590902,3477.590903,3477.590903,3477.590903,3477.590904,
   **   ~~~   ** Supply-to-demand interface deck 1 energy check value iteration history trace: 1452.748548,1452.748548,1452.748548,1452.748548,1452.748548,1452.748548,1452.748549,1452.748549,1452.748549,1452.748549,
   ** Warning ** SimHVAC: Maximum iterations (20) exceeded for all HVAC loops, at ANNUAL, 10/11 06:15 - 06:30
   **   ~~~   ** The solution for one or more of the Air Loop HVAC systems did not appear to converge
   **   ~~~   ** Air System Named = CENTRAL SYSTEM did not converge for mass flow rate
   **   ~~~   ** Check values should be zero. Most Recent values listed first.
   **   ~~~   ** Demand-to-Supply interface mass flow rate check value iteration history trace: 6.453113E-002,6.453113E-002,6.453113E-002,6.453113E-002,6.453113E-002,6.453113E-002,6.453113E-002,6.453113E-002,6.453113E-002,6.453113E-002,
   **   ~~~   ** Supply-to-demand interface deck 1 mass flow rate check value iteration history trace: 6.453113E-002,6.453113E-002,6.453113E-002,6.453113E-002,6.453113E-002,6.453113E-002,6.453113E-002,6.453113E-002,6.453113E-002,6.453113E-002,
   **   ~~~   ** Air System Named = CENTRAL SYSTEM did not converge for energy
   **   ~~~   ** Check values should be zero. Most Recent values listed first.
   **   ~~~   ** Demand-to-Supply interface energy check value iteration history trace: 1275.778390,1275.778390,1275.778390,1275.778390,1275.778389,1275.778389,1275.778389,1275.778389,1275.778389,1275.778389,
   **   ~~~   ** Supply-to-demand interface deck 1 energy check value iteration history trace: 2276.973828,2276.973828,2276.973828,2276.973828,2276.973828,2276.973827,2276.973827,2276.973827,2276.973827,2276.973827,
   ** Warning ** SimHVAC: Maximum iterations (20) exceeded for all HVAC loops, at ANNUAL, 10/15 11:40 - 11:45
   **   ~~~   ** The solution for one or more of the Air Loop HVAC systems did not appear to converge
   **   ~~~   ** Air System Named = CENTRAL SYSTEM did not converge for mass flow rate
   **   ~~~   ** Check values should be zero. Most Recent values listed first.
   **   ~~~   ** Demand-to-Supply interface mass flow rate check value iteration history trace: 0.145043,0.145043,0.145043,0.145043,0.145043,0.145043,0.145043,0.145043,0.145043,0.145043,
   **   ~~~   ** Supply-to-demand interface deck 1 mass flow rate check value iteration history trace: 0.145043,0.145043,0.145043,0.145043,0.145043,0.145043,0.145043,0.145043,0.145043,0.145043,
   **   ~~~   ** Air System Named = CENTRAL SYSTEM did not converge for energy
   **   ~~~   ** Check values should be zero. Most Recent values listed first.
   **   ~~~   ** Demand-to-Supply interface energy check value iteration history trace: 3456.345585,3456.345585,3456.345586,3456.345587,3456.345587,3456.345588,3456.345588,3456.345589,3456.345589,3456.345590,
   **   ~~~   ** Supply-to-demand interface deck 1 energy check value iteration history trace: 1513.067603,1513.067604,1513.067604,1513.067604,1513.067604,1513.067604,1513.067605,1513.067605,1513.067605,1513.067605,
   ** Warning ** SimHVAC: Maximum iterations (20) exceeded for all HVAC loops, at ANNUAL, 10/23 18:30 - 18:38
   **   ~~~   ** The solution for one or more of the Air Loop HVAC systems did not appear to converge
   **   ~~~   ** Air System Named = CENTRAL SYSTEM did not converge for mass flow rate
   **   ~~~   ** Check values should be zero. Most Recent values listed first.
   **   ~~~   ** Demand-to-Supply interface mass flow rate check value iteration history trace: 7.486682E-002,7.486682E-002,7.486682E-002,7.486682E-002,7.486682E-002,7.486682E-002,7.486682E-002,7.486682E-002,7.486682E-002,7.486682E-002,
   **   ~~~   ** Supply-to-demand interface deck 1 mass flow rate check value iteration history trace: 7.486682E-002,7.486682E-002,7.486682E-002,7.486682E-002,7.486682E-002,7.486682E-002,7.486682E-002,7.486682E-002,7.486682E-002,7.486682E-002,
   **   ~~~   ** Air System Named = CENTRAL SYSTEM did not converge for energy
   **   ~~~   ** Check values should be zero. Most Recent values listed first.
   **   ~~~   ** Demand-to-Supply interface energy check value iteration history trace: 1478.738992,1478.738992,1478.738992,1478.738992,1478.738992,1478.738992,1478.738992,1478.738991,1478.738991,1478.738991,
   **   ~~~   ** Supply-to-demand interface deck 1 energy check value iteration history trace: 2564.763517,2564.763517,2564.763517,2564.763517,2564.763517,2564.763517,2564.763517,2564.763517,2564.763516,2564.763516,
   ** Warning ** SimHVAC: Maximum iterations (20) exceeded for all HVAC loops, at ANNUAL, 11/05 20:30 - 20:45
   **   ~~~   ** The solution for one or more of the Air Loop HVAC systems did not appear to converge
   **   ~~~   ** Air System Named = CENTRAL SYSTEM did not converge for mass flow rate
   **   ~~~   ** Check values should be zero. Most Recent values listed first.
   **   ~~~   ** Demand-to-Supply interface mass flow rate check value iteration history trace: 9.725932E-002,9.725932E-002,9.725932E-002,9.725932E-002,9.725932E-002,9.725932E-002,9.725932E-002,9.725932E-002,9.725932E-002,9.725932E-002,
   **   ~~~   ** Supply-to-demand interface deck 1 mass flow rate check value iteration history trace: 9.725932E-002,9.725932E-002,9.725932E-002,9.725932E-002,9.725932E-002,9.725932E-002,9.725932E-002,9.725932E-002,9.725932E-002,9.725932E-002,
   **   ~~~   ** Air System Named = CENTRAL SYSTEM did not converge for energy
   **   ~~~   ** Check values should be zero. Most Recent values listed first.
   **   ~~~   ** Demand-to-Supply interface energy check value iteration history trace: 1925.637654,1925.637654,1925.637654,1925.637654,1925.637654,1925.637654,1925.637653,1925.637653,1925.637653,1925.637653,
   **   ~~~   ** Supply-to-demand interface deck 1 energy check value iteration history trace: 2982.733682,2982.733682,2982.733682,2982.733682,2982.733682,2982.733681,2982.733681,2982.733681,2982.733681,2982.733681,
   ** Warning ** SimHVAC: Maximum iterations (20) exceeded for all HVAC loops, at ANNUAL, 11/16 17:15 - 17:20
   **   ~~~   ** The solution for one or more of the Air Loop HVAC systems did not appear to converge
   **   ~~~   ** Air System Named = CENTRAL SYSTEM did not converge for mass flow rate
   **   ~~~   ** Check values should be zero. Most Recent values listed first.
   **   ~~~   ** Demand-to-Supply interface mass flow rate check value iteration history trace: 6.122063E-002,6.122063E-002,6.122063E-002,6.122063E-002,6.122063E-002,6.122063E-002,6.122063E-002,6.122063E-002,6.122063E-002,6.122063E-002,
   **   ~~~   ** Supply-to-demand interface deck 1 mass flow rate check value iteration history trace: 6.122063E-002,6.122063E-002,6.122063E-002,6.122063E-002,6.122063E-002,6.122063E-002,6.122063E-002,6.122063E-002,6.122063E-002,6.122063E-002,
   **   ~~~   ** Air System Named = CENTRAL SYSTEM did not converge for energy
   **   ~~~   ** Check values should be zero. Most Recent values listed first.
   **   ~~~   ** Demand-to-Supply interface energy check value iteration history trace: 1207.408579,1207.408579,1207.408579,1207.408579,1207.408578,1207.408578,1207.408578,1207.408578,1207.408578,1207.408578,
   **   ~~~   ** Supply-to-demand interface deck 1 energy check value iteration history trace: 2122.263430,2122.263430,2122.263430,2122.263430,2122.263430,2122.263429,2122.263429,2122.263429,2122.263429,2122.263429,
   ** Warning ** SimHVAC: Maximum iterations (20) exceeded for all HVAC loops, at ANNUAL, 12/03 18:00 - 18:05
   **   ~~~   ** The solution for one or more of the Air Loop HVAC systems did not appear to converge
   **   ~~~   ** Air System Named = CENTRAL SYSTEM did not converge for mass flow rate
   **   ~~~   ** Check values should be zero. Most Recent values listed first.
   **   ~~~   ** Demand-to-Supply interface mass flow rate check value iteration history trace: 7.436735E-002,7.436735E-002,7.436735E-002,7.436735E-002,7.436735E-002,7.436735E-002,7.436735E-002,7.436735E-002,7.436735E-002,7.436735E-002,
   **   ~~~   ** Supply-to-demand interface deck 1 mass flow rate check value iteration history trace: 7.436735E-002,7.436735E-002,7.436735E-002,7.436735E-002,7.436735E-002,7.436735E-002,7.436735E-002,7.436735E-002,7.436735E-002,7.436735E-002,
   **   ~~~   ** Air System Named = CENTRAL SYSTEM did not converge for energy
   **   ~~~   ** Check values should be zero. Most Recent values listed first.
   **   ~~~   ** Demand-to-Supply interface energy check value iteration history trace: 1473.593416,1473.593416,1473.593416,1473.593416,1473.593415,1473.593415,1473.593415,1473.593415,1473.593415,1473.593415,
   **   ~~~   ** Supply-to-demand interface deck 1 energy check value iteration history trace: 2588.026399,2588.026399,2588.026399,2588.026399,2588.026399,2588.026398,2588.026398,2588.026398,2588.026398,2588.026398,
   ** Warning ** SimHVAC: Maximum iterations (20) exceeded for all HVAC loops, at ANNUAL, 12/09 18:30 - 18:35
   **   ~~~   ** The solution for one or more of the Air Loop HVAC systems did not appear to converge
   **   ~~~   ** Air System Named = CENTRAL SYSTEM did not converge for mass flow rate
   **   ~~~   ** Check values should be zero. Most Recent values listed first.
   **   ~~~   ** Demand-to-Supply interface mass flow rate check value iteration history trace: 9.430428E-002,9.430428E-002,9.430428E-002,9.430428E-002,9.430428E-002,9.430428E-002,9.430428E-002,9.430428E-002,9.430428E-002,9.430428E-002,
   **   ~~~   ** Supply-to-demand interface deck 1 mass flow rate check value iteration history trace: 9.430428E-002,9.430428E-002,9.430428E-002,9.430428E-002,9.430428E-002,9.430428E-002,9.430428E-002,9.430428E-002,9.430428E-002,9.430428E-002,
   **   ~~~   ** Air System Named = CENTRAL SYSTEM did not converge for energy
   **   ~~~   ** Check values should be zero. Most Recent values listed first.
   **   ~~~   ** Demand-to-Supply interface energy check value iteration history trace: 1863.983617,1863.983617,1863.983617,1863.983617,1863.983617,1863.983617,1863.983617,1863.983617,1863.983616,1863.983616,
   **   ~~~   ** Supply-to-demand interface deck 1 energy check value iteration history trace: 2939.681232,2939.681232,2939.681232,2939.681231,2939.681231,2939.681231,2939.681231,2939.681231,2939.681230,2939.681230,
   ************* Simulation Error Summary *************
   ** Warning ** The following Report Variables were requested but not generated -- check.rdd file
   **   ~~~   ** Either the IDF did not contain these elements, the variable name is misspelled,
   **   ~~~   ** or the requested variable is an advanced output which requires Output : Diagnostics, DisplayAdvancedReportVariables;
   ************* Key=*, VarName=BASEBOARD TOTAL HEATING ENERGY, Frequency=
   ************* Key=*, VarName=WATER HEATER NATURALGAS ENERGY, Frequency=
   ************* Key=*, VarName=COOLING COIL TOTAL HEATING ENERGY, Frequency=
   ************* There are 34 unused schedules in input.
   ************* There are 388 unused week schedules in input.
   ************* There are 396 unused day schedules in input.
   ************* Use Output:Diagnostics,DisplayUnusedSchedules; to see them.
   *************
   ************* ===== Recurring Error Summary =====
   ************* The following recurring error messages occurred.
   *************
   *************  ** Warning ** "TOTAL HOT WATER LOAD" - Target water temperature should be less than or equal to the hot water temperature error continues...
   *************  **   ~~~   **   This error occurred 108767 total times;
   *************  **   ~~~   **   during Warmup 0 times;
   *************  **   ~~~   **   during Sizing 0 times.
   *************  **   ~~~   **   Max=9.848787  Min=9.848680E-006
   *************
   *************  ** Warning ** SimHVAC: Exceeding Maximum iterations for all HVAC loops, during ANNUAL continues
   *************  **   ~~~   **   This error occurred 1 total times;
   *************  **   ~~~   **   during Warmup 0 times;
   *************  **   ~~~   **   during Sizing 0 times.
   *************
   *************
   ************* ===== Final Error Summary =====
   ************* The following error categories occurred.  Consider correcting or noting.
   ************* Nominally Unused Constructions
   ************* ..The nominally unused constructions warning is provided to alert you to potential conditions that can cause
   ************* ..extra time during simulation. Each construction is calculated by the algorithm indicated in the HeatBalanceAlgorithm
   ************* ..object. You may remove the constructions indicated (when you use the DisplayExtraWarnings option).
   *************
   ************* EnergyPlus Warmup Error Summary. During Warmup: 1 Warning; 0 Severe Errors.
   ************* EnergyPlus Sizing Error Summary. During Sizing: 4 Warning; 0 Severe Errors.
   ************* EnergyPlus Completed Successfully-- 108800 Warning; 0 Severe Errors; Elapsed Time=00hr 06min  1.18sec
