Program Version,EnergyPlus, Version 22.2.0-c249759bad, YMD=2023.09.01 19:52,
   ************* Beginning Zone Sizing Calculations
   ** Warning ** ProcessScheduleInput: Schedule:Constant="ALWAYS ON DISCRETE", Schedule Type Limits Name="ONOFF" not found -- will not be validated
   ** Warning ** Foundation:Kiva="KIVA FOUNDATION", no Interior Horizontal Insulation Material Name defined
   **   ~~~   ** Interior Horizontal Insulation Depth will not be used.
   ** Warning ** CheckUsedConstructions: There are 15 nominally unused constructions in input.
   **   ~~~   ** Each Unused construction is shown.
   ************* Construction=INTERIOR FLOOR
   ************* Construction=INTERIOR WINDOW
   ************* Construction=EXTERIOR DOOR
   ************* Construction=INTERIOR DOOR
   ************* Construction=GABLE CONSTRUCTION
   ************* Construction=CRAWL_FLOOR
   ************* Construction=INSULATED PIPE
   ************* Construction=PLAIN PIPE
   ************* Construction=TDD PIPE
   ************* Construction=TDD DOME
   ************* Construction=TDD DIFFUSER
   ************* Construction=CRAWL WALL
   ************* Construction=CEILING-FLOOR-LAYER
   ************* Construction=SLAB CONSTRUCTION W FULL R10 INSULATION
   ************* Construction=SLAB CONSTRUCTION W FULL R5 INSULATION
   ** Warning ** GetDXCoils: Coil:Heating:DX:SingleSpeed="DX_HEATING_COIL" curve values
   **   ~~~   ** ... Defrost Energy Input Ratio Function of Temperature Curve Name = DEFROSTEIR output is not equal to 1.0 (+ or - 10%) at rated conditions.
   **   ~~~   ** ... Curve output at rated conditions = 0.152
   ************* Beginning System Sizing Calculations
   ************* Beginning Plant Sizing Calculations
   ** Warning ** SizeDXCoil Coil:Cooling:DX:SingleSpeed DX_COOLING_COIL
   **   ~~~   ** ...Gross Rated Total Cooling Capacity [W] will be limited by the maximum rated volume flow per rated total capacity ratio.
   **   ~~~   ** ...DX coil volume flow rate ( m3/s ) = 0.395669
   **   ~~~   ** ...Requested capacity ( W ) = 5930.835
   **   ~~~   ** ...Requested flow/capacity ratio ( m3/s/W ) = 6.671E-005
   **   ~~~   ** ...Maximum flow/capacity ratio ( m3/s/W ) = 6.041E-005
   **   ~~~   ** ...Adjusted capacity ( W ) = 6549.735
   ** Warning ** SizeDXCoil Coil:Heating:DX:SingleSpeed DX_HEATING_COIL
   **   ~~~   ** ...Gross Rated Heating Capacity [W] will be limited by the maximum rated volume flow per rated total capacity ratio.
   **   ~~~   ** ...DX coil volume flow rate ( m3/s ) = 0.395669
   **   ~~~   ** ...Requested capacity ( W ) = 6549.735
   **   ~~~   ** ...Requested flow/capacity ratio ( m3/s/W ) = 6.041E-005
   **   ~~~   ** ...Maximum flow/capacity ratio ( m3/s/W ) = 6.041E-005
   **   ~~~   ** ...Adjusted capacity ( W ) = 6549.735
   ** Warning ** Coil:WaterHeating:AirToWaterHeatPump:Wrapped "HEAT PUMP WATER HEATER EVAPORATOR": Rated air volume flow rate per watt of rated total water heating capacity is out of range
   **   ~~~   ** Min Rated Vol Flow Per Watt=[4.027E-005], Rated Vol Flow Per Watt=[1.510E-004], Max Rated Vol Flow Per Watt=[8.056E-005]. See Input-Output Reference Manual for valid range.
   ************* SizeFan: : Potential issue with equipment sizing for Fan:OnOff HEAT PUMP WATER HEATER FAN
   **   ~~~   ** User-Specified Maximum Flow Rate [m3/s] = 0.22653
   **   ~~~   ** differs from Design Size Maximum Flow Rate [m3/s] = 7.55250E-002
   **   ~~~   ** This may, or may not, indicate mismatched component sizes.
   **   ~~~   ** Verify that the value entered is intended and is consistent with other components.
   ** Warning ** Water heater = WATER HEATER TANK:  Recovery Efficiency and Energy Factor could not be calculated during the test for standard ratings
   **   ~~~   ** Setpoint was never recovered and/or heater never turned on
   ** Warning ** Check input. Pump nominal power or motor efficiency is set to 0, for pump=MAINS PRESSURE
   ** Warning ** Output:Meter: invalid Key Name="ELECTRIC_RANGE:INTERIOREQUIPMENT:ELECTRICITY" - not found.
   ** Warning ** Output:Meter: invalid Key Name="ELECTRIC_DRYER:INTERIOREQUIPMENT:ELECTRICITY" - not found.
   ** Warning ** Output:Meter: invalid Key Name="HEATRECOVERY:ELECTRICITY" - not found.
   ** Warning ** Output:Meter: invalid Key Name="HEATING:NATURALGAS" - not found.
   ** Warning ** Output:Meter: invalid Key Name="WATERSYSTEMS:NATURALGAS" - not found.
   ** Warning ** Output:Meter: invalid Key Name="PROPANE:FACILITY" - not found.
   ** Warning ** Output:Meter: invalid Key Name="HEATING:PROPANE" - not found.
   ************* Testing Individual Branch Integrity
   ************* All Branches passed integrity testing
   ************* Testing Individual Supply Air Path Integrity
   ************* All Supply Air Paths passed integrity testing
   ************* Testing Individual Return Air Path Integrity
   ************* All Return Air Paths passed integrity testing
   ************* No node connection errors were found.
   ************* Beginning Simulation
   ** Warning ** AirflowNetwork::Solver::validate_distribution: Heat pump water heater is simulated along with an AirflowNetwork but is not included in the AirflowNetwork.
   ** Warning ** CalcEquipmentFlowRates: "TOTAL HOT WATER LOAD" - Target water temperature is greater than the hot water temperature by (5.12 C)
   **   ~~~   **  Environment=EXTREME_WINTER, at Simulation time=01/22 06:00 - 06:15
   **   ~~~   ** ...target water temperature     = 53.33 C
   **   ~~~   ** ...hot water temperature        = 48.22 C
   **   ~~~   ** ...Target water temperature should be less than or equal to the hot water temperature. Verify temperature setpoints and schedules.
   ** Warning ** SimHVAC: Maximum iterations (20) exceeded for all HVAC loops, at ANNUAL, 01/05 14:15 - 14:30
   **   ~~~   ** The solution for one or more of the Air Loop HVAC systems did not appear to converge
   **   ~~~   ** Air System Named = CENTRAL SYSTEM did not converge for mass flow rate
   **   ~~~   ** Check values should be zero. Most Recent values listed first.
   **   ~~~   ** Demand-to-Supply interface mass flow rate check value iteration history trace: 8.112554E-002,8.112554E-002,8.112554E-002,8.112554E-002,8.112554E-002,8.112554E-002,8.112554E-002,8.112554E-002,8.112554E-002,8.112554E-002,
   **   ~~~   ** Supply-to-demand interface deck 1 mass flow rate check value iteration history trace: 8.112554E-002,8.112554E-002,8.112554E-002,8.112554E-002,8.112554E-002,8.112554E-002,8.112554E-002,8.112554E-002,8.112554E-002,8.112554E-002,
   **   ~~~   ** Air System Named = CENTRAL SYSTEM did not converge for energy
   **   ~~~   ** Check values should be zero. Most Recent values listed first.
   **   ~~~   ** Demand-to-Supply interface energy check value iteration history trace: 1580.825088,1580.825088,1580.825088,1580.825088,1580.825087,1580.825087,1580.825087,1580.825087,1580.825087,1580.825087,
   **   ~~~   ** Supply-to-demand interface deck 1 energy check value iteration history trace: 2431.560637,2431.560637,2431.560636,2431.560636,2431.560636,2431.560636,2431.560636,2431.560636,2431.560635,2431.560635,
   ** Warning ** SimHVAC: Maximum iterations (20) exceeded for all HVAC loops, at ANNUAL, 01/08 18:34 - 18:38
   **   ~~~   ** The solution for one or more of the Air Loop HVAC systems did not appear to converge
   **   ~~~   ** Air System Named = CENTRAL SYSTEM did not converge for mass flow rate
   **   ~~~   ** Check values should be zero. Most Recent values listed first.
   **   ~~~   ** Demand-to-Supply interface mass flow rate check value iteration history trace: 0.100620,0.100620,0.100620,0.100620,0.100620,0.100620,0.100620,0.100620,0.100620,0.100620,
   **   ~~~   ** Supply-to-demand interface deck 1 mass flow rate check value iteration history trace: 0.100620,0.100620,0.100620,0.100620,0.100620,0.100620,0.100620,0.100620,0.100620,0.100620,
   **   ~~~   ** Air System Named = CENTRAL SYSTEM did not converge for energy
   **   ~~~   ** Check values should be zero. Most Recent values listed first.
   **   ~~~   ** Demand-to-Supply interface energy check value iteration history trace: 1988.818105,1988.818105,1988.818105,1988.818105,1988.818105,1988.818104,1988.818104,1988.818104,1988.818104,1988.818104,
   **   ~~~   ** Supply-to-demand interface deck 1 energy check value iteration history trace: 3051.302613,3051.302613,3051.302613,3051.302612,3051.302612,3051.302612,3051.302612,3051.302612,3051.302611,3051.302611,
   ** Warning ** Temperature out of range [-100. to 200.] (PsyPsatFnTemp)
   **   ~~~   **  Routine=PsyTwbFnTdbWPb, Environment=ANNUAL, at Simulation time=01/20 08:30 - 08:38
   **   ~~~   **  Input Temperature=-138.12
   ** Warning ** SimHVAC: Maximum iterations (20) exceeded for all HVAC loops, at ANNUAL, 02/26 20:15 - 20:30
   **   ~~~   ** The solution for one or more of the Air Loop HVAC systems did not appear to converge
   **   ~~~   ** Air System Named = CENTRAL SYSTEM did not converge for mass flow rate
   **   ~~~   ** Check values should be zero. Most Recent values listed first.
   **   ~~~   ** Demand-to-Supply interface mass flow rate check value iteration history trace: 8.224482E-002,8.224482E-002,8.224482E-002,8.224482E-002,8.224482E-002,8.224482E-002,8.224482E-002,8.224482E-002,8.224482E-002,8.224482E-002,
   **   ~~~   ** Supply-to-demand interface deck 1 mass flow rate check value iteration history trace: 8.224482E-002,8.224482E-002,8.224482E-002,8.224482E-002,8.224482E-002,8.224482E-002,8.224482E-002,8.224482E-002,8.224482E-002,8.224482E-002,
   **   ~~~   ** Air System Named = CENTRAL SYSTEM did not converge for energy
   **   ~~~   ** Check values should be zero. Most Recent values listed first.
   **   ~~~   ** Demand-to-Supply interface energy check value iteration history trace: 1618.145180,1618.145180,1618.145180,1618.145180,1618.145180,1618.145180,1618.145179,1618.145179,1618.145179,1618.145179,
   **   ~~~   ** Supply-to-demand interface deck 1 energy check value iteration history trace: 2473.429997,2473.429996,2473.429996,2473.429996,2473.429996,2473.429996,2473.429996,2473.429996,2473.429995,2473.429995,
   ** Warning ** SimHVAC: Maximum iterations (20) exceeded for all HVAC loops, at ANNUAL, 03/10 18:00 - 18:08
   **   ~~~   ** The solution for one or more of the Air Loop HVAC systems did not appear to converge
   **   ~~~   ** Air System Named = CENTRAL SYSTEM did not converge for mass flow rate
   **   ~~~   ** Check values should be zero. Most Recent values listed first.
   **   ~~~   ** Demand-to-Supply interface mass flow rate check value iteration history trace: 6.717045E-002,6.717045E-002,6.717045E-002,6.717045E-002,6.717045E-002,6.717045E-002,6.717045E-002,6.717045E-002,6.717045E-002,6.717045E-002,
   **   ~~~   ** Supply-to-demand interface deck 1 mass flow rate check value iteration history trace: 6.717045E-002,6.717045E-002,6.717045E-002,6.717045E-002,6.717045E-002,6.717045E-002,6.717045E-002,6.717045E-002,6.717045E-002,6.717045E-002,
   **   ~~~   ** Air System Named = CENTRAL SYSTEM did not converge for energy
   **   ~~~   ** Check values should be zero. Most Recent values listed first.
   **   ~~~   ** Demand-to-Supply interface energy check value iteration history trace: 1333.625718,1333.625718,1333.625718,1333.625718,1333.625717,1333.625717,1333.625717,1333.625717,1333.625717,1333.625717,
   **   ~~~   ** Supply-to-demand interface deck 1 energy check value iteration history trace: 2244.761390,2244.761390,2244.761390,2244.761390,2244.761390,2244.761390,2244.761390,2244.761390,2244.761389,2244.761389,
   ** Warning ** SimHVAC: Maximum iterations (20) exceeded for all HVAC loops, at ANNUAL, 03/21 07:15 - 07:30
   **   ~~~   ** The solution for one or more of the Air Loop HVAC systems did not appear to converge
   **   ~~~   ** Air System Named = CENTRAL SYSTEM did not converge for mass flow rate
   **   ~~~   ** Check values should be zero. Most Recent values listed first.
   **   ~~~   ** Demand-to-Supply interface mass flow rate check value iteration history trace: 5.881770E-002,5.881770E-002,5.881770E-002,5.881770E-002,5.881770E-002,5.881770E-002,5.881770E-002,5.881770E-002,5.881770E-002,5.881770E-002,
   **   ~~~   ** Supply-to-demand interface deck 1 mass flow rate check value iteration history trace: 5.881770E-002,5.881770E-002,5.881770E-002,5.881770E-002,5.881770E-002,5.881770E-002,5.881770E-002,5.881770E-002,5.881770E-002,5.881770E-002,
   **   ~~~   ** Air System Named = CENTRAL SYSTEM did not converge for energy
   **   ~~~   ** Check values should be zero. Most Recent values listed first.
   **   ~~~   ** Demand-to-Supply interface energy check value iteration history trace: 1164.372137,1164.372136,1164.372136,1164.372136,1164.372136,1164.372136,1164.372136,1164.372136,1164.372136,1164.372136,
   **   ~~~   ** Supply-to-demand interface deck 1 energy check value iteration history trace: 2140.549829,2140.549829,2140.549829,2140.549829,2140.549829,2140.549829,2140.549829,2140.549828,2140.549828,2140.549828,
   ** Warning ** SimHVAC: Maximum iterations (20) exceeded for all HVAC loops, at ANNUAL, 03/25 15:10 - 15:15
   **   ~~~   ** The solution for one or more of the Air Loop HVAC systems did not appear to converge
   **   ~~~   ** Air System Named = CENTRAL SYSTEM did not converge for mass flow rate
   **   ~~~   ** Check values should be zero. Most Recent values listed first.
   **   ~~~   ** Demand-to-Supply interface mass flow rate check value iteration history trace: 9.470528E-002,9.470528E-002,9.470528E-002,9.470528E-002,9.470528E-002,9.470528E-002,9.470528E-002,9.470528E-002,9.470528E-002,9.470528E-002,
   **   ~~~   ** Supply-to-demand interface deck 1 mass flow rate check value iteration history trace: 9.470528E-002,9.470528E-002,9.470528E-002,9.470528E-002,9.470528E-002,9.470528E-002,9.470528E-002,9.470528E-002,9.470528E-002,9.470528E-002,
   **   ~~~   ** Air System Named = CENTRAL SYSTEM did not converge for energy
   **   ~~~   ** Check values should be zero. Most Recent values listed first.
   **   ~~~   ** Demand-to-Supply interface energy check value iteration history trace: 1862.665938,1862.665938,1862.665938,1862.665938,1862.665937,1862.665937,1862.665937,1862.665937,1862.665937,1862.665937,
   **   ~~~   ** Supply-to-demand interface deck 1 energy check value iteration history trace: 2888.568077,2888.568077,2888.568077,2888.568077,2888.568076,2888.568076,2888.568076,2888.568076,2888.568076,2888.568076,
   ** Warning ** SimHVAC: Maximum iterations (20) exceeded for all HVAC loops, at ANNUAL, 03/26 12:45 - 12:50
   **   ~~~   ** The solution for one or more of the Air Loop HVAC systems did not appear to converge
   **   ~~~   ** Air System Named = CENTRAL SYSTEM did not converge for mass flow rate
   **   ~~~   ** Check values should be zero. Most Recent values listed first.
   **   ~~~   ** Demand-to-Supply interface mass flow rate check value iteration history trace: 8.001815E-002,8.001815E-002,8.001815E-002,8.001815E-002,8.001815E-002,8.001815E-002,8.001815E-002,8.001815E-002,8.001815E-002,8.001815E-002,
   **   ~~~   ** Supply-to-demand interface deck 1 mass flow rate check value iteration history trace: 8.001815E-002,8.001815E-002,8.001815E-002,8.001815E-002,8.001815E-002,8.001815E-002,8.001815E-002,8.001815E-002,8.001815E-002,8.001815E-002,
   **   ~~~   ** Air System Named = CENTRAL SYSTEM did not converge for energy
   **   ~~~   ** Check values should be zero. Most Recent values listed first.
   **   ~~~   ** Demand-to-Supply interface energy check value iteration history trace: 1574.979773,1574.979773,1574.979772,1574.979772,1574.979772,1574.979772,1574.979772,1574.979772,1574.979772,1574.979772,
   **   ~~~   ** Supply-to-demand interface deck 1 energy check value iteration history trace: 2425.249341,2425.249340,2425.249340,2425.249340,2425.249340,2425.249340,2425.249340,2425.249339,2425.249339,2425.249339,
   ** Warning ** SimHVAC: Maximum iterations (20) exceeded for all HVAC loops, at ANNUAL, 04/04 09:00 - 09:15
   **   ~~~   ** The solution for one or more of the Air Loop HVAC systems did not appear to converge
   **   ~~~   ** Air System Named = CENTRAL SYSTEM did not converge for mass flow rate
   **   ~~~   ** Check values should be zero. Most Recent values listed first.
   **   ~~~   ** Demand-to-Supply interface mass flow rate check value iteration history trace: 2.524018E-002,2.524018E-002,2.524018E-002,2.524018E-002,2.524018E-002,2.524018E-002,2.524018E-002,2.524018E-002,2.524018E-002,2.524018E-002,
   **   ~~~   ** Supply-to-demand interface deck 1 mass flow rate check value iteration history trace: 2.524018E-002,2.524018E-002,2.524018E-002,2.524018E-002,2.524018E-002,2.524018E-002,2.524018E-002,2.524018E-002,2.524018E-002,2.524018E-002,
   **   ~~~   ** Air System Named = CENTRAL SYSTEM did not converge for energy
   **   ~~~   ** Check values should be zero. Most Recent values listed first.
   **   ~~~   ** Demand-to-Supply interface energy check value iteration history trace: 500.170284,500.170284,500.170284,500.170284,500.170284,500.170284,500.170284,500.170284,500.170284,500.170284,
   **   ~~~   ** Supply-to-demand interface deck 1 energy check value iteration history trace: 920.674622,920.674622,920.674622,920.674622,920.674622,920.674622,920.674622,920.674622,920.674622,920.674622,
   ** Warning ** SimHVAC: Maximum iterations (20) exceeded for all HVAC loops, at ANNUAL, 04/09 08:18 - 08:21
   **   ~~~   ** The solution for one or more of the Air Loop HVAC systems did not appear to converge
   **   ~~~   ** Air System Named = CENTRAL SYSTEM did not converge for mass flow rate
   **   ~~~   ** Check values should be zero. Most Recent values listed first.
   **   ~~~   ** Demand-to-Supply interface mass flow rate check value iteration history trace: 6.864052E-002,6.864052E-002,6.864052E-002,6.864052E-002,6.864052E-002,6.864052E-002,6.864052E-002,6.864052E-002,6.864052E-002,6.864052E-002,
   **   ~~~   ** Supply-to-demand interface deck 1 mass flow rate check value iteration history trace: 6.864052E-002,6.864052E-002,6.864052E-002,6.864052E-002,6.864052E-002,6.864052E-002,6.864052E-002,6.864052E-002,6.864052E-002,6.864052E-002,
   **   ~~~   ** Air System Named = CENTRAL SYSTEM did not converge for energy
   **   ~~~   ** Check values should be zero. Most Recent values listed first.
   **   ~~~   ** Demand-to-Supply interface energy check value iteration history trace: 1360.267611,1360.267611,1360.267611,1360.267611,1360.267611,1360.267610,1360.267610,1360.267610,1360.267610,1360.267610,
   **   ~~~   ** Supply-to-demand interface deck 1 energy check value iteration history trace: 2337.283521,2337.283521,2337.283521,2337.283520,2337.283520,2337.283520,2337.283520,2337.283520,2337.283520,2337.283520,
   ** Warning ** SimHVAC: Maximum iterations (20) exceeded for all HVAC loops, at ANNUAL, 04/12 09:43 - 09:45
   **   ~~~   ** The solution for one or more of the Air Loop HVAC systems did not appear to converge
   **   ~~~   ** Air System Named = CENTRAL SYSTEM did not converge for mass flow rate
   **   ~~~   ** Check values should be zero. Most Recent values listed first.
   **   ~~~   ** Demand-to-Supply interface mass flow rate check value iteration history trace: 5.355192E-002,5.355192E-002,5.355192E-002,5.355192E-002,5.355192E-002,5.355192E-002,5.355192E-002,5.355192E-002,5.355192E-002,5.355192E-002,
   **   ~~~   ** Supply-to-demand interface deck 1 mass flow rate check value iteration history trace: 5.355192E-002,5.355192E-002,5.355192E-002,5.355192E-002,5.355192E-002,5.355192E-002,5.355192E-002,5.355192E-002,5.355192E-002,5.355192E-002,
   **   ~~~   ** Air System Named = CENTRAL SYSTEM did not converge for energy
   **   ~~~   ** Check values should be zero. Most Recent values listed first.
   **   ~~~   ** Demand-to-Supply interface energy check value iteration history trace: 1056.767977,1056.767977,1056.767977,1056.767977,1056.767977,1056.767977,1056.767977,1056.767977,1056.767976,1056.767976,
   **   ~~~   ** Supply-to-demand interface deck 1 energy check value iteration history trace: 1905.276575,1905.276575,1905.276575,1905.276575,1905.276575,1905.276575,1905.276574,1905.276574,1905.276574,1905.276574,
   ** Warning ** SimHVAC: Maximum iterations (20) exceeded for all HVAC loops, at ANNUAL, 04/18 06:45 - 07:00
   **   ~~~   ** The solution for one or more of the Air Loop HVAC systems did not appear to converge
   **   ~~~   ** Air System Named = CENTRAL SYSTEM did not converge for mass flow rate
   **   ~~~   ** Check values should be zero. Most Recent values listed first.
   **   ~~~   ** Demand-to-Supply interface mass flow rate check value iteration history trace: 7.667209E-002,7.667209E-002,7.667209E-002,7.667209E-002,7.667209E-002,7.667209E-002,7.667209E-002,7.667209E-002,7.667209E-002,7.667209E-002,
   **   ~~~   ** Supply-to-demand interface deck 1 mass flow rate check value iteration history trace: 7.667209E-002,7.667209E-002,7.667209E-002,7.667209E-002,7.667209E-002,7.667209E-002,7.667209E-002,7.667209E-002,7.667209E-002,7.667209E-002,
   **   ~~~   ** Air System Named = CENTRAL SYSTEM did not converge for energy
   **   ~~~   ** Check values should be zero. Most Recent values listed first.
   **   ~~~   ** Demand-to-Supply interface energy check value iteration history trace: 1519.220841,1519.220841,1519.220841,1519.220841,1519.220841,1519.220841,1519.220841,1519.220841,1519.220841,1519.220841,
   **   ~~~   ** Supply-to-demand interface deck 1 energy check value iteration history trace: 2580.444897,2580.444896,2580.444896,2580.444896,2580.444896,2580.444896,2580.444896,2580.444896,2580.444896,2580.444895,
   ** Warning ** SimHVAC: Maximum iterations (20) exceeded for all HVAC loops, at ANNUAL, 04/19 07:23 - 07:30
   **   ~~~   ** The solution for one or more of the Air Loop HVAC systems did not appear to converge
   **   ~~~   ** Air System Named = CENTRAL SYSTEM did not converge for mass flow rate
   **   ~~~   ** Check values should be zero. Most Recent values listed first.
   **   ~~~   ** Demand-to-Supply interface mass flow rate check value iteration history trace: 7.063691E-002,7.063691E-002,7.063691E-002,7.063691E-002,7.063691E-002,7.063691E-002,7.063691E-002,7.063691E-002,7.063691E-002,7.063691E-002,
   **   ~~~   ** Supply-to-demand interface deck 1 mass flow rate check value iteration history trace: 7.063691E-002,7.063691E-002,7.063691E-002,7.063691E-002,7.063691E-002,7.063691E-002,7.063691E-002,7.063691E-002,7.063691E-002,7.063691E-002,
   **   ~~~   ** Air System Named = CENTRAL SYSTEM did not converge for energy
   **   ~~~   ** Check values should be zero. Most Recent values listed first.
   **   ~~~   ** Demand-to-Supply interface energy check value iteration history trace: 1387.949868,1387.949868,1387.949868,1387.949867,1387.949867,1387.949867,1387.949867,1387.949867,1387.949867,1387.949867,
   **   ~~~   ** Supply-to-demand interface deck 1 energy check value iteration history trace: 2405.248300,2405.248300,2405.248300,2405.248300,2405.248300,2405.248299,2405.248299,2405.248299,2405.248299,2405.248299,
   ** Warning ** SimHVAC: Maximum iterations (20) exceeded for all HVAC loops, at ANNUAL, 04/25 06:40 - 06:45
   **   ~~~   ** The solution for one or more of the Air Loop HVAC systems did not appear to converge
   **   ~~~   ** Air System Named = CENTRAL SYSTEM did not converge for mass flow rate
   **   ~~~   ** Check values should be zero. Most Recent values listed first.
   **   ~~~   ** Demand-to-Supply interface mass flow rate check value iteration history trace: 6.770543E-002,6.770543E-002,6.770543E-002,6.770543E-002,6.770543E-002,6.770543E-002,6.770543E-002,6.770543E-002,6.770543E-002,6.770543E-002,
   **   ~~~   ** Supply-to-demand interface deck 1 mass flow rate check value iteration history trace: 6.770543E-002,6.770543E-002,6.770543E-002,6.770543E-002,6.770543E-002,6.770543E-002,6.770543E-002,6.770543E-002,6.770543E-002,6.770543E-002,
   **   ~~~   ** Air System Named = CENTRAL SYSTEM did not converge for energy
   **   ~~~   ** Check values should be zero. Most Recent values listed first.
   **   ~~~   ** Demand-to-Supply interface energy check value iteration history trace: 1326.208464,1326.208463,1326.208463,1326.208463,1326.208463,1326.208463,1326.208463,1326.208463,1326.208463,1326.208463,
   **   ~~~   ** Supply-to-demand interface deck 1 energy check value iteration history trace: 2388.609119,2388.609119,2388.609119,2388.609118,2388.609118,2388.609118,2388.609118,2388.609118,2388.609118,2388.609118,
   ** Warning ** SimHVAC: Maximum iterations (20) exceeded for all HVAC loops, at ANNUAL, 05/27 03:30 - 03:45
   **   ~~~   ** The solution for one or more of the Air Loop HVAC systems did not appear to converge
   **   ~~~   ** Air System Named = CENTRAL SYSTEM did not converge for mass flow rate
   **   ~~~   ** Check values should be zero. Most Recent values listed first.
   **   ~~~   ** Demand-to-Supply interface mass flow rate check value iteration history trace: 8.389877E-002,8.389877E-002,8.389877E-002,8.389877E-002,8.389877E-002,8.389877E-002,8.389877E-002,8.389877E-002,8.389877E-002,8.389877E-002,
   **   ~~~   ** Supply-to-demand interface deck 1 mass flow rate check value iteration history trace: 8.389877E-002,8.389877E-002,8.389877E-002,8.389877E-002,8.389877E-002,8.389877E-002,8.389877E-002,8.389877E-002,8.389877E-002,8.389877E-002,
   **   ~~~   ** Air System Named = CENTRAL SYSTEM did not converge for energy
   **   ~~~   ** Check values should be zero. Most Recent values listed first.
   **   ~~~   ** Demand-to-Supply interface energy check value iteration history trace: 2092.325050,2092.325050,2092.325051,2092.325052,2092.325052,2092.325053,2092.325054,2092.325054,2092.325055,2092.325055,
   **   ~~~   ** Supply-to-demand interface deck 1 energy check value iteration history trace: 1113.674474,1113.674474,1113.674474,1113.674475,1113.674475,1113.674475,1113.674476,1113.674476,1113.674476,1113.674477,
   ************* Simulation Error Summary *************
   ** Warning ** The following Report Variables were requested but not generated -- check.rdd file
   **   ~~~   ** Either the IDF did not contain these elements, the variable name is misspelled,
   **   ~~~   ** or the requested variable is an advanced output which requires Output : Diagnostics, DisplayAdvancedReportVariables;
   ************* Key=*, VarName=BASEBOARD TOTAL HEATING ENERGY, Frequency=
   ************* Key=*, VarName=WATER HEATER NATURALGAS ENERGY, Frequency=
   ************* Key=*, VarName=COOLING COIL TOTAL HEATING ENERGY, Frequency=
   ************* There are 34 unused schedules in input.
   ************* There are 388 unused week schedules in input.
   ************* There are 396 unused day schedules in input.
   ************* Use Output:Diagnostics,DisplayUnusedSchedules; to see them.
   *************
   ************* ===== Recurring Error Summary =====
   ************* The following recurring error messages occurred.
   *************
   *************  ** Warning ** "TOTAL HOT WATER LOAD" - Target water temperature should be less than or equal to the hot water temperature error continues...
   *************  **   ~~~   **   This error occurred 110753 total times;
   *************  **   ~~~   **   during Warmup 0 times;
   *************  **   ~~~   **   during Sizing 0 times.
   *************  **   ~~~   **   Max=12.435064  Min=2.038204E-005
   *************
   *************  ** Warning ** Temperature out of range [-100. to 200.] (PsyPsatFnTemp)
   *************  **   ~~~   **   This error occurred 1 total times;
   *************  **   ~~~   **   during Warmup 0 times;
   *************  **   ~~~   **   during Sizing 0 times.
   *************  **   ~~~   **   Max=-138.125969 C  Min=-138.125969 C
   *************
   *************  ** Warning ** SimHVAC: Exceeding Maximum iterations for all HVAC loops, during ANNUAL continues
   *************  **   ~~~   **   This error occurred 5 total times;
   *************  **   ~~~   **   during Warmup 0 times;
   *************  **   ~~~   **   during Sizing 0 times.
   *************
   *************
   ************* ===== Final Error Summary =====
   ************* The following error categories occurred.  Consider correcting or noting.
   ************* Nominally Unused Constructions
   ************* ..The nominally unused constructions warning is provided to alert you to potential conditions that can cause
   ************* ..extra time during simulation. Each construction is calculated by the algorithm indicated in the HeatBalanceAlgorithm
   ************* ..object. You may remove the constructions indicated (when you use the DisplayExtraWarnings option).
   *************
   ************* EnergyPlus Warmup Error Summary. During Warmup: 1 Warning; 0 Severe Errors.
   ************* EnergyPlus Sizing Error Summary. During Sizing: 4 Warning; 0 Severe Errors.
   ************* EnergyPlus Completed Successfully-- 110792 Warning; 0 Severe Errors; Elapsed Time=00hr 01min 29.54sec
