Program Version,EnergyPlus, Version 22.2.0-c249759bad, YMD=2023.09.01 19:22,
   ************* Beginning Zone Sizing Calculations
   ** Warning ** ProcessScheduleInput: Schedule:Constant="ALWAYS ON DISCRETE", Schedule Type Limits Name="ONOFF" not found -- will not be validated
   ** Warning ** Foundation:Kiva="KIVA FOUNDATION", no Interior Horizontal Insulation Material Name defined
   **   ~~~   ** Interior Horizontal Insulation Depth will not be used.
   ** Warning ** CheckUsedConstructions: There are 15 nominally unused constructions in input.
   **   ~~~   ** Each Unused construction is shown.
   ************* Construction=INTERIOR FLOOR
   ************* Construction=INTERIOR WINDOW
   ************* Construction=EXTERIOR DOOR
   ************* Construction=INTERIOR DOOR
   ************* Construction=GABLE CONSTRUCTION
   ************* Construction=CRAWL_FLOOR
   ************* Construction=INSULATED PIPE
   ************* Construction=PLAIN PIPE
   ************* Construction=TDD PIPE
   ************* Construction=TDD DOME
   ************* Construction=TDD DIFFUSER
   ************* Construction=CRAWL WALL
   ************* Construction=CEILING-FLOOR-LAYER
   ************* Construction=SLAB CONSTRUCTION W FULL R10 INSULATION
   ************* Construction=SLAB CONSTRUCTION W FULL R5 INSULATION
   ** Warning ** GetDXCoils: Coil:Heating:DX:SingleSpeed="DX_HEATING_COIL" curve values
   **   ~~~   ** ... Defrost Energy Input Ratio Function of Temperature Curve Name = DEFROSTEIR output is not equal to 1.0 (+ or - 10%) at rated conditions.
   **   ~~~   ** ... Curve output at rated conditions = 0.152
   ************* Beginning System Sizing Calculations
   ************* Beginning Plant Sizing Calculations
   ** Warning ** SizeDXCoil Coil:Cooling:DX:SingleSpeed DX_COOLING_COIL
   **   ~~~   ** ...Gross Rated Total Cooling Capacity [W] will be limited by the maximum rated volume flow per rated total capacity ratio.
   **   ~~~   ** ...DX coil volume flow rate ( m3/s ) = 0.336474
   **   ~~~   ** ...Requested capacity ( W ) = 4877.939
   **   ~~~   ** ...Requested flow/capacity ratio ( m3/s/W ) = 6.897E-005
   **   ~~~   ** ...Maximum flow/capacity ratio ( m3/s/W ) = 6.041E-005
   **   ~~~   ** ...Adjusted capacity ( W ) = 5569.841
   ** Warning ** Coil:WaterHeating:AirToWaterHeatPump:Wrapped "HEAT PUMP WATER HEATER EVAPORATOR": Rated air volume flow rate per watt of rated total water heating capacity is out of range
   **   ~~~   ** Min Rated Vol Flow Per Watt=[4.027E-005], Rated Vol Flow Per Watt=[1.510E-004], Max Rated Vol Flow Per Watt=[8.056E-005]. See Input-Output Reference Manual for valid range.
   ************* SizeFan: : Potential issue with equipment sizing for Fan:OnOff HEAT PUMP WATER HEATER FAN
   **   ~~~   ** User-Specified Maximum Flow Rate [m3/s] = 0.22653
   **   ~~~   ** differs from Design Size Maximum Flow Rate [m3/s] = 7.55250E-002
   **   ~~~   ** This may, or may not, indicate mismatched component sizes.
   **   ~~~   ** Verify that the value entered is intended and is consistent with other components.
   ** Warning ** Water heater = WATER HEATER TANK:  Recovery Efficiency and Energy Factor could not be calculated during the test for standard ratings
   **   ~~~   ** Setpoint was never recovered and/or heater never turned on
   ** Warning ** Check input. Pump nominal power or motor efficiency is set to 0, for pump=MAINS PRESSURE
   ** Warning ** Output:Meter: invalid Key Name="ELECTRIC_RANGE:INTERIOREQUIPMENT:ELECTRICITY" - not found.
   ** Warning ** Output:Meter: invalid Key Name="ELECTRIC_DRYER:INTERIOREQUIPMENT:ELECTRICITY" - not found.
   ** Warning ** Output:Meter: invalid Key Name="HEATRECOVERY:ELECTRICITY" - not found.
   ** Warning ** Output:Meter: invalid Key Name="HEATING:NATURALGAS" - not found.
   ** Warning ** Output:Meter: invalid Key Name="WATERSYSTEMS:NATURALGAS" - not found.
   ** Warning ** Output:Meter: invalid Key Name="PROPANE:FACILITY" - not found.
   ** Warning ** Output:Meter: invalid Key Name="HEATING:PROPANE" - not found.
   ************* Testing Individual Branch Integrity
   ************* All Branches passed integrity testing
   ************* Testing Individual Supply Air Path Integrity
   ************* All Supply Air Paths passed integrity testing
   ************* Testing Individual Return Air Path Integrity
   ************* All Return Air Paths passed integrity testing
   ************* No node connection errors were found.
   ************* Beginning Simulation
   ** Warning ** AirflowNetwork::Solver::validate_distribution: Heat pump water heater is simulated along with an AirflowNetwork but is not included in the AirflowNetwork.
   ** Warning ** CalcEquipmentFlowRates: "TOTAL HOT WATER LOAD" - Target water temperature is greater than the hot water temperature by (0.85 C)
   **   ~~~   **  Environment=EXTREME_WINTER, at Simulation time=01/01 06:45 - 07:00
   **   ~~~   ** ...target water temperature     = 53.33 C
   **   ~~~   ** ...hot water temperature        = 52.48 C
   **   ~~~   ** ...Target water temperature should be less than or equal to the hot water temperature. Verify temperature setpoints and schedules.
   ** Severe  ** CheckWarmupConvergence: Loads Initialization, Zone="LIVING" did not converge after 25 warmup days.
   **   ~~~   ** See Warmup Convergence Information in .eio file for details.
   **   ~~~   ** ...Environment(SizingPeriod)="EXTREME_SUMMER"
   **   ~~~   ** ..Max Temp Comparison = 1.55E-002 vs Temperature Convergence Tolerance=5.00E-002 - Pass Convergence
   **   ~~~   ** ..Min Temp Comparison = 2.83E-002 vs Temperature Convergence Tolerance=5.00E-002 - Pass Convergence
   **   ~~~   ** ..Max Heat Load Comparison = 0.1396 vs Loads Convergence Tolerance=5.00E-002 - Fail Convergence
   **   ~~~   ** ..Max Cool Load Comparison = 2.3914E-004 vs Loads Convergence Tolerance=5.00E-002 - Pass Convergence
   ** Severe  ** CheckWarmupConvergence: Loads Initialization, Zone="ATTIC" did not converge after 25 warmup days.
   **   ~~~   ** ...Environment(SizingPeriod)="EXTREME_SUMMER"
   **   ~~~   ** ..Max Temp Comparison = 0.11 vs Temperature Convergence Tolerance=5.00E-002 - Fail Convergence
   **   ~~~   ** ..Min Temp Comparison = 2.52E-002 vs Temperature Convergence Tolerance=5.00E-002 - Pass Convergence
   **   ~~~   ** ..Max Heat Load Comparison = 0.0000 vs Loads Convergence Tolerance=5.00E-002 - Pass Convergence
   **   ~~~   ** ..Max Cool Load Comparison = 0.0000 vs Loads Convergence Tolerance=5.00E-002 - Pass Convergence
   ** Warning ** SimHVAC: Maximum iterations (20) exceeded for all HVAC loops, at ANNUAL, 01/19 10:45 - 11:00
   **   ~~~   ** The solution for one or more of the Air Loop HVAC systems did not appear to converge
   **   ~~~   ** Air System Named = CENTRAL SYSTEM did not converge for mass flow rate
   **   ~~~   ** Check values should be zero. Most Recent values listed first.
   **   ~~~   ** Demand-to-Supply interface mass flow rate check value iteration history trace: 0.106049,0.106049,0.106049,0.106049,0.106049,0.106049,0.106049,0.106049,0.106049,0.106049,
   **   ~~~   ** Supply-to-demand interface deck 1 mass flow rate check value iteration history trace: 0.106049,0.106049,0.106049,0.106049,0.106049,0.106049,0.106049,0.106049,0.106049,0.106049,
   **   ~~~   ** Air System Named = CENTRAL SYSTEM did not converge for energy
   **   ~~~   ** Check values should be zero. Most Recent values listed first.
   **   ~~~   ** Demand-to-Supply interface energy check value iteration history trace: 2101.452595,2101.452595,2101.452595,2101.452595,2101.452594,2101.452594,2101.452594,2101.452594,2101.452594,2101.452594,
   **   ~~~   ** Supply-to-demand interface deck 1 energy check value iteration history trace: 3188.277901,3188.277901,3188.277901,3188.277900,3188.277900,3188.277900,3188.277900,3188.277900,3188.277899,3188.277899,
   ** Warning ** SimHVAC: Maximum iterations (20) exceeded for all HVAC loops, at ANNUAL, 03/01 18:15 - 18:22
   **   ~~~   ** The solution for one or more of the Air Loop HVAC systems did not appear to converge
   **   ~~~   ** Air System Named = CENTRAL SYSTEM did not converge for mass flow rate
   **   ~~~   ** Check values should be zero. Most Recent values listed first.
   **   ~~~   ** Demand-to-Supply interface mass flow rate check value iteration history trace: 5.136277E-002,5.136277E-002,5.136277E-002,5.136277E-002,5.136277E-002,5.136277E-002,5.136277E-002,5.136277E-002,5.136277E-002,5.136277E-002,
   **   ~~~   ** Supply-to-demand interface deck 1 mass flow rate check value iteration history trace: 5.136277E-002,5.136277E-002,5.136277E-002,5.136277E-002,5.136277E-002,5.136277E-002,5.136277E-002,5.136277E-002,5.136277E-002,5.136277E-002,
   **   ~~~   ** Air System Named = CENTRAL SYSTEM did not converge for energy
   **   ~~~   ** Check values should be zero. Most Recent values listed first.
   **   ~~~   ** Demand-to-Supply interface energy check value iteration history trace: 1011.994849,1011.994849,1011.994849,1011.994849,1011.994849,1011.994849,1011.994849,1011.994849,1011.994849,1011.994848,
   **   ~~~   ** Supply-to-demand interface deck 1 energy check value iteration history trace: 1814.368238,1814.368238,1814.368238,1814.368238,1814.368238,1814.368237,1814.368237,1814.368237,1814.368237,1814.368237,
   ** Warning ** SimHVAC: Maximum iterations (20) exceeded for all HVAC loops, at ANNUAL, 03/08 09:15 - 09:30
   **   ~~~   ** The solution for one or more of the Air Loop HVAC systems did not appear to converge
   **   ~~~   ** Air System Named = CENTRAL SYSTEM did not converge for mass flow rate
   **   ~~~   ** Check values should be zero. Most Recent values listed first.
   **   ~~~   ** Demand-to-Supply interface mass flow rate check value iteration history trace: 0.103852,0.103852,0.103852,0.103852,0.103852,0.103852,0.103852,0.103852,0.103852,0.103852,
   **   ~~~   ** Supply-to-demand interface deck 1 mass flow rate check value iteration history trace: 0.103852,0.103852,0.103852,0.103852,0.103852,0.103852,0.103852,0.103852,0.103852,0.103852,
   **   ~~~   ** Air System Named = CENTRAL SYSTEM did not converge for energy
   **   ~~~   ** Check values should be zero. Most Recent values listed first.
   **   ~~~   ** Demand-to-Supply interface energy check value iteration history trace: 2057.888192,2057.888192,2057.888192,2057.888192,2057.888192,2057.888192,2057.888191,2057.888191,2057.888191,2057.888191,
   **   ~~~   ** Supply-to-demand interface deck 1 energy check value iteration history trace: 3087.567005,3087.567004,3087.567004,3087.567004,3087.567004,3087.567003,3087.567003,3087.567003,3087.567003,3087.567003,
   ** Warning ** SimHVAC: Maximum iterations (20) exceeded for all HVAC loops, at ANNUAL, 03/09 10:45 - 11:00
   **   ~~~   ** The solution for one or more of the Air Loop HVAC systems did not appear to converge
   **   ~~~   ** Air System Named = CENTRAL SYSTEM did not converge for mass flow rate
   **   ~~~   ** Check values should be zero. Most Recent values listed first.
   **   ~~~   ** Demand-to-Supply interface mass flow rate check value iteration history trace: 0.107554,0.107554,0.107554,0.107554,0.107554,0.107554,0.107554,0.107554,0.107554,0.107554,
   **   ~~~   ** Supply-to-demand interface deck 1 mass flow rate check value iteration history trace: 0.107554,0.107554,0.107554,0.107554,0.107554,0.107554,0.107554,0.107554,0.107554,0.107554,
   **   ~~~   ** Air System Named = CENTRAL SYSTEM did not converge for energy
   **   ~~~   ** Check values should be zero. Most Recent values listed first.
   **   ~~~   ** Demand-to-Supply interface energy check value iteration history trace: 2129.542885,2129.542885,2129.542884,2129.542884,2129.542884,2129.542884,2129.542884,2129.542884,2129.542884,2129.542883,
   **   ~~~   ** Supply-to-demand interface deck 1 energy check value iteration history trace: 3206.417302,3206.417302,3206.417301,3206.417301,3206.417301,3206.417301,3206.417300,3206.417300,3206.417300,3206.417300,
   ** Warning ** SimHVAC: Maximum iterations (20) exceeded for all HVAC loops, at ANNUAL, 03/19 17:55 - 18:00
   **   ~~~   ** The solution for one or more of the Air Loop HVAC systems did not appear to converge
   **   ~~~   ** Air System Named = CENTRAL SYSTEM did not converge for mass flow rate
   **   ~~~   ** Check values should be zero. Most Recent values listed first.
   **   ~~~   ** Demand-to-Supply interface mass flow rate check value iteration history trace: 6.569650E-002,6.569650E-002,6.569650E-002,6.569650E-002,6.569650E-002,6.569650E-002,6.569650E-002,6.569650E-002,6.569650E-002,6.569650E-002,
   **   ~~~   ** Supply-to-demand interface deck 1 mass flow rate check value iteration history trace: 6.569650E-002,6.569650E-002,6.569650E-002,6.569650E-002,6.569650E-002,6.569650E-002,6.569650E-002,6.569650E-002,6.569650E-002,6.569650E-002,
   **   ~~~   ** Air System Named = CENTRAL SYSTEM did not converge for energy
   **   ~~~   ** Check values should be zero. Most Recent values listed first.
   **   ~~~   ** Demand-to-Supply interface energy check value iteration history trace: 1301.798060,1301.798060,1301.798060,1301.798060,1301.798060,1301.798060,1301.798060,1301.798060,1301.798060,1301.798060,
   **   ~~~   ** Supply-to-demand interface deck 1 energy check value iteration history trace: 2198.769843,2198.769843,2198.769843,2198.769843,2198.769843,2198.769843,2198.769843,2198.769842,2198.769842,2198.769842,
   ** Warning ** SimHVAC: Maximum iterations (20) exceeded for all HVAC loops, at ANNUAL, 03/20 13:45 - 14:00
   **   ~~~   ** The solution for one or more of the Air Loop HVAC systems did not appear to converge
   **   ~~~   ** Air System Named = CENTRAL SYSTEM did not converge for mass flow rate
   **   ~~~   ** Check values should be zero. Most Recent values listed first.
   **   ~~~   ** Demand-to-Supply interface mass flow rate check value iteration history trace: 3.264410E-002,3.264410E-002,3.264410E-002,3.264410E-002,3.264410E-002,3.264410E-002,3.264410E-002,3.264410E-002,3.264410E-002,3.264410E-002,
   **   ~~~   ** Supply-to-demand interface deck 1 mass flow rate check value iteration history trace: 3.264410E-002,3.264410E-002,3.264410E-002,3.264410E-002,3.264410E-002,3.264410E-002,3.264410E-002,3.264410E-002,3.264410E-002,3.264410E-002,
   **   ~~~   ** Air System Named = CENTRAL SYSTEM did not converge for energy
   **   ~~~   ** Check values should be zero. Most Recent values listed first.
   **   ~~~   ** Demand-to-Supply interface energy check value iteration history trace: 646.433786,646.433786,646.433786,646.433786,646.433786,646.433785,646.433785,646.433785,646.433785,646.433785,
   **   ~~~   ** Supply-to-demand interface deck 1 energy check value iteration history trace: 1116.093801,1116.093801,1116.093800,1116.093800,1116.093800,1116.093799,1116.093799,1116.093799,1116.093798,1116.093798,
   **   ~~~   ** Node named ZONE INLET NODE shows oscillating temperatures across iterations with a repeated value of 34.024947
   **   ~~~   ** Node named ZONE INLET NODE temperature [C] iteration history trace (most recent first): 34.024947,34.024947,34.024947,34.024947,34.024946,34.024946,34.024946,34.024945,34.024945,34.024945,
   ** Warning ** SimHVAC: Maximum iterations (20) exceeded for all HVAC loops, at ANNUAL, 03/27 13:15 - 13:22
   **   ~~~   ** The solution for one or more of the Air Loop HVAC systems did not appear to converge
   **   ~~~   ** Air System Named = CENTRAL SYSTEM did not converge for mass flow rate
   **   ~~~   ** Check values should be zero. Most Recent values listed first.
   **   ~~~   ** Demand-to-Supply interface mass flow rate check value iteration history trace: 5.427696E-002,5.427696E-002,5.427696E-002,5.427696E-002,5.427696E-002,5.427696E-002,5.427696E-002,5.427696E-002,5.427696E-002,5.427696E-002,
   **   ~~~   ** Supply-to-demand interface deck 1 mass flow rate check value iteration history trace: 5.427696E-002,5.427696E-002,5.427696E-002,5.427696E-002,5.427696E-002,5.427696E-002,5.427696E-002,5.427696E-002,5.427696E-002,5.427696E-002,
   **   ~~~   ** Air System Named = CENTRAL SYSTEM did not converge for energy
   **   ~~~   ** Check values should be zero. Most Recent values listed first.
   **   ~~~   ** Demand-to-Supply interface energy check value iteration history trace: 1073.248929,1073.248929,1073.248929,1073.248929,1073.248929,1073.248929,1073.248928,1073.248928,1073.248928,1073.248928,
   **   ~~~   ** Supply-to-demand interface deck 1 energy check value iteration history trace: 1923.250892,1923.250892,1923.250892,1923.250892,1923.250892,1923.250892,1923.250892,1923.250892,1923.250892,1923.250892,
   ** Warning ** SimHVAC: Maximum iterations (20) exceeded for all HVAC loops, at ANNUAL, 03/31 08:26 - 08:30
   **   ~~~   ** The solution for one or more of the Air Loop HVAC systems did not appear to converge
   **   ~~~   ** Air System Named = CENTRAL SYSTEM did not converge for mass flow rate
   **   ~~~   ** Check values should be zero. Most Recent values listed first.
   **   ~~~   ** Demand-to-Supply interface mass flow rate check value iteration history trace: 6.300408E-002,6.300408E-002,6.300408E-002,6.300408E-002,6.300408E-002,6.300408E-002,6.300408E-002,6.300408E-002,6.300408E-002,6.300408E-002,
   **   ~~~   ** Supply-to-demand interface deck 1 mass flow rate check value iteration history trace: 6.300408E-002,6.300408E-002,6.300408E-002,6.300408E-002,6.300408E-002,6.300408E-002,6.300408E-002,6.300408E-002,6.300408E-002,6.300408E-002,
   **   ~~~   ** Air System Named = CENTRAL SYSTEM did not converge for energy
   **   ~~~   ** Check values should be zero. Most Recent values listed first.
   **   ~~~   ** Demand-to-Supply interface energy check value iteration history trace: 1238.349830,1238.349830,1238.349830,1238.349830,1238.349829,1238.349829,1238.349829,1238.349829,1238.349829,1238.349829,
   **   ~~~   ** Supply-to-demand interface deck 1 energy check value iteration history trace: 2213.322820,2213.322820,2213.322820,2213.322820,2213.322820,2213.322820,2213.322820,2213.322820,2213.322819,2213.322819,
   ** Warning ** SimHVAC: Maximum iterations (20) exceeded for all HVAC loops, at ANNUAL, 04/03 08:30 - 08:45
   **   ~~~   ** The solution for one or more of the Air Loop HVAC systems did not appear to converge
   **   ~~~   ** Air System Named = CENTRAL SYSTEM did not converge for mass flow rate
   **   ~~~   ** Check values should be zero. Most Recent values listed first.
   **   ~~~   ** Demand-to-Supply interface mass flow rate check value iteration history trace: 7.275656E-002,7.275656E-002,7.275656E-002,7.275656E-002,7.275656E-002,7.275656E-002,7.275656E-002,7.275656E-002,7.275656E-002,7.275656E-002,
   **   ~~~   ** Supply-to-demand interface deck 1 mass flow rate check value iteration history trace: 7.275656E-002,7.275656E-002,7.275656E-002,7.275656E-002,7.275656E-002,7.275656E-002,7.275656E-002,7.275656E-002,7.275656E-002,7.275656E-002,
   **   ~~~   ** Air System Named = CENTRAL SYSTEM did not converge for energy
   **   ~~~   ** Check values should be zero. Most Recent values listed first.
   **   ~~~   ** Demand-to-Supply interface energy check value iteration history trace: 1441.729763,1441.729763,1441.729763,1441.729763,1441.729763,1441.729763,1441.729763,1441.729763,1441.729763,1441.729762,
   **   ~~~   ** Supply-to-demand interface deck 1 energy check value iteration history trace: 2465.776973,2465.776973,2465.776973,2465.776973,2465.776973,2465.776973,2465.776972,2465.776972,2465.776972,2465.776972,
   ** Warning ** SimHVAC: Maximum iterations (20) exceeded for all HVAC loops, at ANNUAL, 04/06 11:45 - 12:00
   **   ~~~   ** The solution for one or more of the Air Loop HVAC systems did not appear to converge
   **   ~~~   ** Air System Named = CENTRAL SYSTEM did not converge for mass flow rate
   **   ~~~   ** Check values should be zero. Most Recent values listed first.
   **   ~~~   ** Demand-to-Supply interface mass flow rate check value iteration history trace: 6.859899E-002,6.859899E-002,6.859899E-002,6.859899E-002,6.859899E-002,6.859899E-002,6.859899E-002,6.859899E-002,6.859899E-002,6.859899E-002,
   **   ~~~   ** Supply-to-demand interface deck 1 mass flow rate check value iteration history trace: 6.859899E-002,6.859899E-002,6.859899E-002,6.859899E-002,6.859899E-002,6.859899E-002,6.859899E-002,6.859899E-002,6.859899E-002,6.859899E-002,
   **   ~~~   ** Air System Named = CENTRAL SYSTEM did not converge for energy
   **   ~~~   ** Check values should be zero. Most Recent values listed first.
   **   ~~~   ** Demand-to-Supply interface energy check value iteration history trace: 1359.448258,1359.448258,1359.448258,1359.448258,1359.448258,1359.448258,1359.448258,1359.448257,1359.448257,1359.448257,
   **   ~~~   ** Supply-to-demand interface deck 1 energy check value iteration history trace: 2333.598023,2333.598023,2333.598023,2333.598023,2333.598022,2333.598022,2333.598022,2333.598022,2333.598022,2333.598022,
   ** Warning ** SimHVAC: Maximum iterations (20) exceeded for all HVAC loops, at ANNUAL, 05/08 09:17 - 09:20
   **   ~~~   ** The solution for one or more of the Air Loop HVAC systems did not appear to converge
   **   ~~~   ** Air System Named = CENTRAL SYSTEM did not converge for mass flow rate
   **   ~~~   ** Check values should be zero. Most Recent values listed first.
   **   ~~~   ** Demand-to-Supply interface mass flow rate check value iteration history trace: 6.393003E-002,6.393003E-002,6.393003E-002,6.393003E-002,6.393003E-002,6.393003E-002,6.393003E-002,6.393003E-002,6.393003E-002,6.393003E-002,
   **   ~~~   ** Supply-to-demand interface deck 1 mass flow rate check value iteration history trace: 6.393003E-002,6.393003E-002,6.393003E-002,6.393003E-002,6.393003E-002,6.393003E-002,6.393003E-002,6.393003E-002,6.393003E-002,6.393003E-002,
   **   ~~~   ** Air System Named = CENTRAL SYSTEM did not converge for energy
   **   ~~~   ** Check values should be zero. Most Recent values listed first.
   **   ~~~   ** Demand-to-Supply interface energy check value iteration history trace: 1262.274791,1262.274791,1262.274791,1262.274790,1262.274790,1262.274790,1262.274790,1262.274790,1262.274790,1262.274790,
   **   ~~~   ** Supply-to-demand interface deck 1 energy check value iteration history trace: 2177.806213,2177.806213,2177.806213,2177.806213,2177.806213,2177.806213,2177.806213,2177.806213,2177.806213,2177.806213,
   ** Warning ** SimHVAC: Maximum iterations (20) exceeded for all HVAC loops, at ANNUAL, 05/09 06:45 - 07:00
   **   ~~~   ** The solution for one or more of the Air Loop HVAC systems did not appear to converge
   **   ~~~   ** Air System Named = CENTRAL SYSTEM did not converge for mass flow rate
   **   ~~~   ** Check values should be zero. Most Recent values listed first.
   **   ~~~   ** Demand-to-Supply interface mass flow rate check value iteration history trace: 6.910154E-002,6.910154E-002,6.910154E-002,6.910154E-002,6.910154E-002,6.910154E-002,6.910154E-002,6.910154E-002,6.910154E-002,6.910154E-002,
   **   ~~~   ** Supply-to-demand interface deck 1 mass flow rate check value iteration history trace: 6.910154E-002,6.910154E-002,6.910154E-002,6.910154E-002,6.910154E-002,6.910154E-002,6.910154E-002,6.910154E-002,6.910154E-002,6.910154E-002,
   **   ~~~   ** Air System Named = CENTRAL SYSTEM did not converge for energy
   **   ~~~   ** Check values should be zero. Most Recent values listed first.
   **   ~~~   ** Demand-to-Supply interface energy check value iteration history trace: 1369.295475,1369.295475,1369.295475,1369.295475,1369.295475,1369.295475,1369.295475,1369.295475,1369.295475,1369.295475,
   **   ~~~   ** Supply-to-demand interface deck 1 energy check value iteration history trace: 2338.816949,2338.816949,2338.816949,2338.816949,2338.816949,2338.816948,2338.816948,2338.816948,2338.816948,2338.816948,
   ** Warning ** SimHVAC: Maximum iterations (20) exceeded for all HVAC loops, at ANNUAL, 05/09 06:45 - 06:52
   **   ~~~   ** The solution for one or more of the Air Loop HVAC systems did not appear to converge
   **   ~~~   ** Air System Named = CENTRAL SYSTEM did not converge for mass flow rate
   **   ~~~   ** Check values should be zero. Most Recent values listed first.
   **   ~~~   ** Demand-to-Supply interface mass flow rate check value iteration history trace: 6.896872E-002,6.896872E-002,6.896872E-002,6.896872E-002,6.896872E-002,6.896872E-002,6.896872E-002,6.896872E-002,6.896872E-002,6.896872E-002,
   **   ~~~   ** Supply-to-demand interface deck 1 mass flow rate check value iteration history trace: 6.896872E-002,6.896872E-002,6.896872E-002,6.896872E-002,6.896872E-002,6.896872E-002,6.896872E-002,6.896872E-002,6.896872E-002,6.896872E-002,
   **   ~~~   ** Air System Named = CENTRAL SYSTEM did not converge for energy
   **   ~~~   ** Check values should be zero. Most Recent values listed first.
   **   ~~~   ** Demand-to-Supply interface energy check value iteration history trace: 1366.661759,1366.661759,1366.661759,1366.661759,1366.661759,1366.661759,1366.661759,1366.661759,1366.661759,1366.661759,
   **   ~~~   ** Supply-to-demand interface deck 1 energy check value iteration history trace: 2334.302790,2334.302790,2334.302790,2334.302790,2334.302790,2334.302790,2334.302790,2334.302790,2334.302789,2334.302789,
   ** Warning ** SimHVAC: Maximum iterations (20) exceeded for all HVAC loops, at ANNUAL, 05/27 09:15 - 09:30
   **   ~~~   ** The solution for one or more of the Air Loop HVAC systems did not appear to converge
   **   ~~~   ** Air System Named = CENTRAL SYSTEM did not converge for mass flow rate
   **   ~~~   ** Check values should be zero. Most Recent values listed first.
   **   ~~~   ** Demand-to-Supply interface mass flow rate check value iteration history trace: 6.164271E-002,6.164271E-002,6.164271E-002,6.164271E-002,6.164271E-002,6.164271E-002,6.164271E-002,6.164271E-002,6.164271E-002,6.164271E-002,
   **   ~~~   ** Supply-to-demand interface deck 1 mass flow rate check value iteration history trace: 6.164271E-002,6.164271E-002,6.164271E-002,6.164271E-002,6.164271E-002,6.164271E-002,6.164271E-002,6.164271E-002,6.164271E-002,6.164271E-002,
   **   ~~~   ** Air System Named = CENTRAL SYSTEM did not converge for energy
   **   ~~~   ** Check values should be zero. Most Recent values listed first.
   **   ~~~   ** Demand-to-Supply interface energy check value iteration history trace: 1220.109608,1220.109608,1220.109608,1220.109608,1220.109607,1220.109607,1220.109607,1220.109607,1220.109607,1220.109607,
   **   ~~~   ** Supply-to-demand interface deck 1 energy check value iteration history trace: 2138.849317,2138.849317,2138.849317,2138.849317,2138.849316,2138.849316,2138.849316,2138.849316,2138.849316,2138.849316,
   ************* Simulation Error Summary *************
   ** Warning ** The following Report Variables were requested but not generated -- check.rdd file
   **   ~~~   ** Either the IDF did not contain these elements, the variable name is misspelled,
   **   ~~~   ** or the requested variable is an advanced output which requires Output : Diagnostics, DisplayAdvancedReportVariables;
   ************* Key=*, VarName=BASEBOARD TOTAL HEATING ENERGY, Frequency=
   ************* Key=*, VarName=WATER HEATER NATURALGAS ENERGY, Frequency=
   ************* Key=*, VarName=COOLING COIL TOTAL HEATING ENERGY, Frequency=
   ************* There are 34 unused schedules in input.
   ************* There are 388 unused week schedules in input.
   ************* There are 397 unused day schedules in input.
   ************* Use Output:Diagnostics,DisplayUnusedSchedules; to see them.
   *************
   ************* ===== Recurring Error Summary =====
   ************* The following recurring error messages occurred.
   *************
   *************  ** Warning ** "TOTAL HOT WATER LOAD" - Target water temperature should be less than or equal to the hot water temperature error continues...
   *************  **   ~~~   **   This error occurred 88165 total times;
   *************  **   ~~~   **   during Warmup 0 times;
   *************  **   ~~~   **   during Sizing 0 times.
   *************  **   ~~~   **   Max=9.613654  Min=1.107930E-003
   *************
   *************  ** Warning ** SimHVAC: Exceeding Maximum iterations for all HVAC loops, during ANNUAL continues
   *************  **   ~~~   **   This error occurred 8 total times;
   *************  **   ~~~   **   during Warmup 0 times;
   *************  **   ~~~   **   during Sizing 0 times.
   *************
   *************
   ************* ===== Final Error Summary =====
   ************* The following error categories occurred.  Consider correcting or noting.
   ************* Loads Initialization did not Converge
   ************* ..1) very high thermal mass such as very thick concrete (solution: increase max number of warmup
   ************* ..   days in the BUILDING object);
   ************* ..2) moderate mass and inadequate space conditioning such that the building keeps getting warmer
   ************* ..   and warmer on successive days (solution: add HVAC, check building thermal properties,
   ************* ..   check if infiltration is included, make sure HVAC properly controlled);
   ************* ..3) a soil layer modeled below the concrete slab - (solution remove this layer and read about
   ************* ..   ground temperatures in the Auxiliary Programs document).
   ************* ..4) unreasonable (too small) limits in the BUILDING object for temperature (.4 default) or
   ************* ..   loads tolerances (.04 default)
   ************* Nominally Unused Constructions
   ************* ..The nominally unused constructions warning is provided to alert you to potential conditions that can cause
   ************* ..extra time during simulation. Each construction is calculated by the algorithm indicated in the HeatBalanceAlgorithm
   ************* ..object. You may remove the constructions indicated (when you use the DisplayExtraWarnings option).
   *************
   ************* EnergyPlus Warmup Error Summary. During Warmup: 1 Warning; 2 Severe Errors.
   ************* EnergyPlus Sizing Error Summary. During Sizing: 4 Warning; 0 Severe Errors.
   ************* EnergyPlus Completed Successfully-- 88205 Warning; 2 Severe Errors; Elapsed Time=00hr 01min 24.63sec
