Program Version,EnergyPlus, Version 22.2.0-c249759bad, YMD=2023.09.01 20:10,
   ************* Beginning Zone Sizing Calculations
   ** Warning ** ProcessScheduleInput: Schedule:Constant="ALWAYS ON DISCRETE", Schedule Type Limits Name="ONOFF" not found -- will not be validated
   ** Warning ** Foundation:Kiva="KIVA FOUNDATION", no Interior Horizontal Insulation Material Name defined
   **   ~~~   ** Interior Horizontal Insulation Depth will not be used.
   ** Warning ** CheckUsedConstructions: There are 15 nominally unused constructions in input.
   **   ~~~   ** Each Unused construction is shown.
   ************* Construction=INTERIOR FLOOR
   ************* Construction=INTERIOR WINDOW
   ************* Construction=EXTERIOR DOOR
   ************* Construction=INTERIOR DOOR
   ************* Construction=GABLE CONSTRUCTION
   ************* Construction=CRAWL_FLOOR
   ************* Construction=INSULATED PIPE
   ************* Construction=PLAIN PIPE
   ************* Construction=TDD PIPE
   ************* Construction=TDD DOME
   ************* Construction=TDD DIFFUSER
   ************* Construction=CRAWL WALL
   ************* Construction=CEILING-FLOOR-LAYER
   ************* Construction=SLAB CONSTRUCTION W FULL R10 INSULATION
   ************* Construction=SLAB CONSTRUCTION W FULL R5 INSULATION
   ** Warning ** GetDXCoils: Coil:Heating:DX:SingleSpeed="DX_HEATING_COIL" curve values
   **   ~~~   ** ... Defrost Energy Input Ratio Function of Temperature Curve Name = DEFROSTEIR output is not equal to 1.0 (+ or - 10%) at rated conditions.
   **   ~~~   ** ... Curve output at rated conditions = 0.152
   ************* Beginning System Sizing Calculations
   ************* Beginning Plant Sizing Calculations
   ** Warning ** Coil:WaterHeating:AirToWaterHeatPump:Wrapped "HEAT PUMP WATER HEATER EVAPORATOR": Rated air volume flow rate per watt of rated total water heating capacity is out of range
   **   ~~~   ** Min Rated Vol Flow Per Watt=[4.027E-005], Rated Vol Flow Per Watt=[1.510E-004], Max Rated Vol Flow Per Watt=[8.056E-005]. See Input-Output Reference Manual for valid range.
   ************* SizeFan: : Potential issue with equipment sizing for Fan:OnOff HEAT PUMP WATER HEATER FAN
   **   ~~~   ** User-Specified Maximum Flow Rate [m3/s] = 0.22653
   **   ~~~   ** differs from Design Size Maximum Flow Rate [m3/s] = 7.55250E-002
   **   ~~~   ** This may, or may not, indicate mismatched component sizes.
   **   ~~~   ** Verify that the value entered is intended and is consistent with other components.
   ** Warning ** Water heater = WATER HEATER TANK:  Recovery Efficiency and Energy Factor could not be calculated during the test for standard ratings
   **   ~~~   ** Setpoint was never recovered and/or heater never turned on
   ** Warning ** Check input. Pump nominal power or motor efficiency is set to 0, for pump=MAINS PRESSURE
   ** Warning ** AirflowNetwork::Solver::validate_distribution: Heat pump water heater is simulated along with an AirflowNetwork but is not included in the AirflowNetwork.
   ** Warning ** Output:Meter: invalid Key Name="ELECTRIC_RANGE:INTERIOREQUIPMENT:ELECTRICITY" - not found.
   ** Warning ** Output:Meter: invalid Key Name="ELECTRIC_DRYER:INTERIOREQUIPMENT:ELECTRICITY" - not found.
   ** Warning ** Output:Meter: invalid Key Name="HEATRECOVERY:ELECTRICITY" - not found.
   ** Warning ** Output:Meter: invalid Key Name="HEATING:NATURALGAS" - not found.
   ** Warning ** Output:Meter: invalid Key Name="WATERSYSTEMS:NATURALGAS" - not found.
   ** Warning ** Output:Meter: invalid Key Name="PROPANE:FACILITY" - not found.
   ** Warning ** Output:Meter: invalid Key Name="HEATING:PROPANE" - not found.
   ************* Testing Individual Branch Integrity
   ************* All Branches passed integrity testing
   ************* Testing Individual Supply Air Path Integrity
   ************* All Supply Air Paths passed integrity testing
   ************* Testing Individual Return Air Path Integrity
   ************* All Return Air Paths passed integrity testing
   ************* No node connection errors were found.
   ************* Beginning Simulation
   ** Warning ** CalcEquipmentFlowRates: "TOTAL HOT WATER LOAD" - Target water temperature is greater than the hot water temperature by (4.47 C)
   **   ~~~   **  Environment=EXTREME_WINTER, at Simulation time=12/22 07:00 - 07:15
   **   ~~~   ** ...target water temperature     = 53.33 C
   **   ~~~   ** ...hot water temperature        = 48.86 C
   **   ~~~   ** ...Target water temperature should be less than or equal to the hot water temperature. Verify temperature setpoints and schedules.
   ** Warning ** SimHVAC: Maximum iterations (20) exceeded for all HVAC loops, at EXTREME_WINTER, 12/23 20:45 - 21:00
   **   ~~~   ** The solution for one or more of the Air Loop HVAC systems did not appear to converge
   **   ~~~   ** Air System Named = CENTRAL SYSTEM did not converge for mass flow rate
   **   ~~~   ** Check values should be zero. Most Recent values listed first.
   **   ~~~   ** Demand-to-Supply interface mass flow rate check value iteration history trace: 6.199349E-002,6.199349E-002,6.199349E-002,6.199349E-002,6.199349E-002,6.199349E-002,6.199349E-002,6.199349E-002,6.199349E-002,6.199349E-002,
   **   ~~~   ** Supply-to-demand interface deck 1 mass flow rate check value iteration history trace: 6.199349E-002,6.199349E-002,6.199349E-002,6.199349E-002,6.199349E-002,6.199349E-002,6.199349E-002,6.199349E-002,6.199349E-002,6.199349E-002,
   **   ~~~   ** Air System Named = CENTRAL SYSTEM did not converge for energy
   **   ~~~   ** Check values should be zero. Most Recent values listed first.
   **   ~~~   ** Demand-to-Supply interface energy check value iteration history trace: 1196.888809,1196.888809,1196.888809,1196.888809,1196.888809,1196.888809,1196.888808,1196.888808,1196.888808,1196.888808,
   **   ~~~   ** Supply-to-demand interface deck 1 energy check value iteration history trace: 2166.509619,2166.509619,2166.509619,2166.509619,2166.509619,2166.509618,2166.509618,2166.509618,2166.509618,2166.509618,
   ** Warning ** SimHVAC: Maximum iterations (20) exceeded for all HVAC loops, at ANNUAL, 01/12 09:45 - 09:48
   **   ~~~   ** The solution for one or more of the Air Loop HVAC systems did not appear to converge
   **   ~~~   ** Air System Named = CENTRAL SYSTEM did not converge for mass flow rate
   **   ~~~   ** Check values should be zero. Most Recent values listed first.
   **   ~~~   ** Demand-to-Supply interface mass flow rate check value iteration history trace: 9.512725E-002,9.512725E-002,9.512725E-002,9.512725E-002,9.512725E-002,9.512725E-002,9.512725E-002,9.512725E-002,9.512725E-002,9.512725E-002,
   **   ~~~   ** Supply-to-demand interface deck 1 mass flow rate check value iteration history trace: 9.512725E-002,9.512725E-002,9.512725E-002,9.512725E-002,9.512725E-002,9.512725E-002,9.512725E-002,9.512725E-002,9.512725E-002,9.512725E-002,
   **   ~~~   ** Air System Named = CENTRAL SYSTEM did not converge for energy
   **   ~~~   ** Check values should be zero. Most Recent values listed first.
   **   ~~~   ** Demand-to-Supply interface energy check value iteration history trace: 1878.445283,1878.445283,1878.445283,1878.445283,1878.445283,1878.445283,1878.445283,1878.445282,1878.445282,1878.445282,
   **   ~~~   ** Supply-to-demand interface deck 1 energy check value iteration history trace: 2934.500301,2934.500301,2934.500300,2934.500300,2934.500300,2934.500300,2934.500300,2934.500300,2934.500299,2934.500299,
   ** Warning ** SimHVAC: Maximum iterations (20) exceeded for all HVAC loops, at ANNUAL, 01/14 09:15 - 09:20
   **   ~~~   ** The solution for one or more of the Air Loop HVAC systems did not appear to converge
   **   ~~~   ** Air System Named = CENTRAL SYSTEM did not converge for mass flow rate
   **   ~~~   ** Check values should be zero. Most Recent values listed first.
   **   ~~~   ** Demand-to-Supply interface mass flow rate check value iteration history trace: 6.495604E-002,6.495604E-002,6.495604E-002,6.495604E-002,6.495604E-002,6.495604E-002,6.495604E-002,6.495604E-002,6.495604E-002,6.495604E-002,
   **   ~~~   ** Supply-to-demand interface deck 1 mass flow rate check value iteration history trace: 6.495604E-002,6.495604E-002,6.495604E-002,6.495604E-002,6.495604E-002,6.495604E-002,6.495604E-002,6.495604E-002,6.495604E-002,6.495604E-002,
   **   ~~~   ** Air System Named = CENTRAL SYSTEM did not converge for energy
   **   ~~~   ** Check values should be zero. Most Recent values listed first.
   **   ~~~   ** Demand-to-Supply interface energy check value iteration history trace: 1280.226657,1280.226657,1280.226657,1280.226657,1280.226657,1280.226657,1280.226657,1280.226657,1280.226657,1280.226656,
   **   ~~~   ** Supply-to-demand interface deck 1 energy check value iteration history trace: 2277.672351,2277.672351,2277.672351,2277.672351,2277.672351,2277.672351,2277.672351,2277.672351,2277.672351,2277.672350,
   ** Warning ** SimHVAC: Maximum iterations (20) exceeded for all HVAC loops, at ANNUAL, 01/19 10:30 - 10:34
   **   ~~~   ** The solution for one or more of the Air Loop HVAC systems did not appear to converge
   **   ~~~   ** Air System Named = CENTRAL SYSTEM did not converge for mass flow rate
   **   ~~~   ** Check values should be zero. Most Recent values listed first.
   **   ~~~   ** Demand-to-Supply interface mass flow rate check value iteration history trace: 6.463815E-002,6.463815E-002,6.463815E-002,6.463815E-002,6.463815E-002,6.463815E-002,6.463815E-002,6.463815E-002,6.463815E-002,6.463815E-002,
   **   ~~~   ** Supply-to-demand interface deck 1 mass flow rate check value iteration history trace: 6.463815E-002,6.463815E-002,6.463815E-002,6.463815E-002,6.463815E-002,6.463815E-002,6.463815E-002,6.463815E-002,6.463815E-002,6.463815E-002,
   **   ~~~   ** Air System Named = CENTRAL SYSTEM did not converge for energy
   **   ~~~   ** Check values should be zero. Most Recent values listed first.
   **   ~~~   ** Demand-to-Supply interface energy check value iteration history trace: 1280.921819,1280.921819,1280.921819,1280.921819,1280.921819,1280.921819,1280.921819,1280.921819,1280.921819,1280.921818,
   **   ~~~   ** Supply-to-demand interface deck 1 energy check value iteration history trace: 2308.213986,2308.213986,2308.213986,2308.213985,2308.213985,2308.213985,2308.213985,2308.213985,2308.213985,2308.213985,
   **   ~~~   ** Node named ZONE INLET NODE shows oscillating temperatures across iterations with a repeated value of 35.537636
   **   ~~~   ** Node named ZONE INLET NODE temperature [C] iteration history trace (most recent first): 35.537636,35.537636,35.537635,35.537635,35.537635,35.537635,35.537634,35.537634,35.537634,35.537634,
   ** Warning ** SimHVAC: Maximum iterations (20) exceeded for all HVAC loops, at ANNUAL, 01/24 10:45 - 10:49
   **   ~~~   ** The solution for one or more of the Air Loop HVAC systems did not appear to converge
   **   ~~~   ** Air System Named = CENTRAL SYSTEM did not converge for mass flow rate
   **   ~~~   ** Check values should be zero. Most Recent values listed first.
   **   ~~~   ** Demand-to-Supply interface mass flow rate check value iteration history trace: 7.057749E-002,7.057749E-002,7.057749E-002,7.057749E-002,7.057749E-002,7.057749E-002,7.057749E-002,7.057749E-002,7.057749E-002,7.057749E-002,
   **   ~~~   ** Supply-to-demand interface deck 1 mass flow rate check value iteration history trace: 7.057749E-002,7.057749E-002,7.057749E-002,7.057749E-002,7.057749E-002,7.057749E-002,7.057749E-002,7.057749E-002,7.057749E-002,7.057749E-002,
   **   ~~~   ** Air System Named = CENTRAL SYSTEM did not converge for energy
   **   ~~~   ** Check values should be zero. Most Recent values listed first.
   **   ~~~   ** Demand-to-Supply interface energy check value iteration history trace: 1398.611417,1398.611416,1398.611416,1398.611416,1398.611415,1398.611415,1398.611415,1398.611414,1398.611414,1398.611414,
   **   ~~~   ** Supply-to-demand interface deck 1 energy check value iteration history trace: 2516.232664,2516.232664,2516.232663,2516.232663,2516.232662,2516.232661,2516.232661,2516.232660,2516.232660,2516.232659,
   **   ~~~   ** Node named ZONE INLET NODE shows oscillating temperatures across iterations with a repeated value of 35.480195
   **   ~~~   ** Node named ZONE INLET NODE temperature [C] iteration history trace (most recent first): 35.480195,35.480195,35.480195,35.480194,35.480194,35.480194,35.480193,35.480193,35.480193,35.480192,
   ** Warning ** SimHVAC: Maximum iterations (20) exceeded for all HVAC loops, at ANNUAL, 02/15 10:38 - 10:45
   **   ~~~   ** The solution for one or more of the Air Loop HVAC systems did not appear to converge
   **   ~~~   ** Air System Named = CENTRAL SYSTEM did not converge for mass flow rate
   **   ~~~   ** Check values should be zero. Most Recent values listed first.
   **   ~~~   ** Demand-to-Supply interface mass flow rate check value iteration history trace: 4.656767E-002,4.656767E-002,4.656767E-002,4.656767E-002,4.656767E-002,4.656767E-002,4.656767E-002,4.656767E-002,4.656767E-002,4.656767E-002,
   **   ~~~   ** Supply-to-demand interface deck 1 mass flow rate check value iteration history trace: 4.656767E-002,4.656767E-002,4.656767E-002,4.656767E-002,4.656767E-002,4.656767E-002,4.656767E-002,4.656767E-002,4.656767E-002,4.656767E-002,
   **   ~~~   ** Air System Named = CENTRAL SYSTEM did not converge for energy
   **   ~~~   ** Check values should be zero. Most Recent values listed first.
   **   ~~~   ** Demand-to-Supply interface energy check value iteration history trace: 909.743752,909.743752,909.743752,909.743752,909.743752,909.743752,909.743752,909.743752,909.743752,909.743752,
   **   ~~~   ** Supply-to-demand interface deck 1 energy check value iteration history trace: 1713.803808,1713.803808,1713.803808,1713.803808,1713.803808,1713.803808,1713.803808,1713.803808,1713.803807,1713.803807,
   ** Warning ** SimHVAC: Maximum iterations (20) exceeded for all HVAC loops, at ANNUAL, 02/19 10:15 - 10:30
   **   ~~~   ** The solution for one or more of the Air Loop HVAC systems did not appear to converge
   **   ~~~   ** Air System Named = CENTRAL SYSTEM did not converge for mass flow rate
   **   ~~~   ** Check values should be zero. Most Recent values listed first.
   **   ~~~   ** Demand-to-Supply interface mass flow rate check value iteration history trace: 6.908912E-002,6.908912E-002,6.908912E-002,6.908912E-002,6.908912E-002,6.908912E-002,6.908912E-002,6.908912E-002,6.908912E-002,6.908912E-002,
   **   ~~~   ** Supply-to-demand interface deck 1 mass flow rate check value iteration history trace: 6.908912E-002,6.908912E-002,6.908912E-002,6.908912E-002,6.908912E-002,6.908912E-002,6.908912E-002,6.908912E-002,6.908912E-002,6.908912E-002,
   **   ~~~   ** Air System Named = CENTRAL SYSTEM did not converge for energy
   **   ~~~   ** Check values should be zero. Most Recent values listed first.
   **   ~~~   ** Demand-to-Supply interface energy check value iteration history trace: 1369.081942,1369.081942,1369.081942,1369.081942,1369.081942,1369.081942,1369.081942,1369.081942,1369.081942,1369.081942,
   **   ~~~   ** Supply-to-demand interface deck 1 energy check value iteration history trace: 2355.421201,2355.421201,2355.421201,2355.421201,2355.421201,2355.421201,2355.421201,2355.421200,2355.421200,2355.421200,
   ** Warning ** SimHVAC: Maximum iterations (20) exceeded for all HVAC loops, at ANNUAL, 03/29 17:20 - 17:25
   **   ~~~   ** The solution for one or more of the Air Loop HVAC systems did not appear to converge
   **   ~~~   ** Air System Named = CENTRAL SYSTEM did not converge for mass flow rate
   **   ~~~   ** Check values should be zero. Most Recent values listed first.
   **   ~~~   ** Demand-to-Supply interface mass flow rate check value iteration history trace: 0.175972,0.175972,0.175972,0.175972,0.175972,0.175972,0.175972,0.175972,0.175972,0.175972,
   **   ~~~   ** Supply-to-demand interface deck 1 mass flow rate check value iteration history trace: 0.175972,0.175972,0.175972,0.175972,0.175972,0.175972,0.175972,0.175972,0.175972,0.175972,
   **   ~~~   ** Air System Named = CENTRAL SYSTEM did not converge for energy
   **   ~~~   ** Check values should be zero. Most Recent values listed first.
   **   ~~~   ** Demand-to-Supply interface energy check value iteration history trace: 4169.533166,4169.533166,4169.533167,4169.533167,4169.533167,4169.533167,4169.533168,4169.533168,4169.533168,4169.533168,
   **   ~~~   ** Supply-to-demand interface deck 1 energy check value iteration history trace: 1851.086053,1851.086053,1851.086053,1851.086053,1851.086054,1851.086054,1851.086054,1851.086054,1851.086054,1851.086054,
   ** Warning ** SimHVAC: Maximum iterations (20) exceeded for all HVAC loops, at ANNUAL, 03/29 21:08 - 21:15
   **   ~~~   ** The solution for one or more of the Air Loop HVAC systems did not appear to converge
   **   ~~~   ** Air System Named = CENTRAL SYSTEM did not converge for mass flow rate
   **   ~~~   ** Check values should be zero. Most Recent values listed first.
   **   ~~~   ** Demand-to-Supply interface mass flow rate check value iteration history trace: 0.100306,0.100306,0.100306,0.100306,0.100306,0.100306,0.100306,0.100306,0.100306,0.100306,
   **   ~~~   ** Supply-to-demand interface deck 1 mass flow rate check value iteration history trace: 0.100306,0.100306,0.100306,0.100306,0.100306,0.100306,0.100306,0.100306,0.100306,0.100306,
   **   ~~~   ** Air System Named = CENTRAL SYSTEM did not converge for energy
   **   ~~~   ** Check values should be zero. Most Recent values listed first.
   **   ~~~   ** Demand-to-Supply interface energy check value iteration history trace: 2363.411853,2363.411853,2363.411853,2363.411853,2363.411853,2363.411854,2363.411854,2363.411854,2363.411854,2363.411854,
   **   ~~~   ** Supply-to-demand interface deck 1 energy check value iteration history trace: 1031.893868,1031.893868,1031.893868,1031.893868,1031.893868,1031.893868,1031.893868,1031.893868,1031.893868,1031.893868,
   ** Warning ** SimHVAC: Maximum iterations (20) exceeded for all HVAC loops, at ANNUAL, 04/01 06:15 - 06:22
   **   ~~~   ** The solution for one or more of the Air Loop HVAC systems did not appear to converge
   **   ~~~   ** Air System Named = CENTRAL SYSTEM did not converge for mass flow rate
   **   ~~~   ** Check values should be zero. Most Recent values listed first.
   **   ~~~   ** Demand-to-Supply interface mass flow rate check value iteration history trace: 1.536157E-002,1.536157E-002,1.536157E-002,1.536157E-002,1.536157E-002,1.536157E-002,1.536157E-002,1.536157E-002,1.536157E-002,1.536157E-002,
   **   ~~~   ** Supply-to-demand interface deck 1 mass flow rate check value iteration history trace: 1.536157E-002,1.536157E-002,1.536157E-002,1.536157E-002,1.536157E-002,1.536157E-002,1.536157E-002,1.536157E-002,1.536157E-002,1.536157E-002,
   **   ~~~   ** Air System Named = CENTRAL SYSTEM did not converge for energy
   **   ~~~   ** Check values should be zero. Most Recent values listed first.
   **   ~~~   ** Demand-to-Supply interface energy check value iteration history trace: 358.631351,358.631351,358.631351,358.631351,358.631351,358.631351,358.631351,358.631351,358.631351,358.631352,
   **   ~~~   ** Supply-to-demand interface deck 1 energy check value iteration history trace: 198.441930,198.441930,198.441930,198.441930,198.441930,198.441930,198.441930,198.441930,198.441930,198.441930,
   ** Warning ** SimHVAC: Maximum iterations (20) exceeded for all HVAC loops, at ANNUAL, 04/02 11:23 - 11:30
   **   ~~~   ** The solution for one or more of the Air Loop HVAC systems did not appear to converge
   **   ~~~   ** Air System Named = CENTRAL SYSTEM did not converge for mass flow rate
   **   ~~~   ** Check values should be zero. Most Recent values listed first.
   **   ~~~   ** Demand-to-Supply interface mass flow rate check value iteration history trace: 0.126436,0.126436,0.126436,0.126436,0.126436,0.126436,0.126436,0.126436,0.126436,0.126436,
   **   ~~~   ** Supply-to-demand interface deck 1 mass flow rate check value iteration history trace: 0.126436,0.126436,0.126436,0.126436,0.126436,0.126436,0.126436,0.126436,0.126436,0.126436,
   **   ~~~   ** Air System Named = CENTRAL SYSTEM did not converge for energy
   **   ~~~   ** Check values should be zero. Most Recent values listed first.
   **   ~~~   ** Demand-to-Supply interface energy check value iteration history trace: 3003.103543,3003.103543,3003.103544,3003.103544,3003.103544,3003.103544,3003.103544,3003.103545,3003.103545,3003.103545,
   **   ~~~   ** Supply-to-demand interface deck 1 energy check value iteration history trace: 1791.562717,1791.562717,1791.562717,1791.562717,1791.562717,1791.562718,1791.562718,1791.562718,1791.562718,1791.562718,
   ** Warning ** SimHVAC: Maximum iterations (20) exceeded for all HVAC loops, at ANNUAL, 04/03 09:00 - 09:15
   **   ~~~   ** The solution for one or more of the Air Loop HVAC systems did not appear to converge
   **   ~~~   ** Air System Named = CENTRAL SYSTEM did not converge for energy
   **   ~~~   ** Check values should be zero. Most Recent values listed first.
   **   ~~~   ** Demand-to-Supply interface energy check value iteration history trace: 177.871728,177.871728,177.871728,177.871728,177.871728,177.871728,177.871728,177.871728,177.871728,177.871728,
   **   ~~~   ** Supply-to-demand interface deck 1 energy check value iteration history trace: 71.105033,71.105033,71.105033,71.105033,71.105033,71.105033,71.105033,71.105033,71.105033,71.105033,
   ** Warning ** SimHVAC: Maximum iterations (20) exceeded for all HVAC loops, at ANNUAL, 04/04 11:51 - 11:54
   **   ~~~   ** The solution for one or more of the Air Loop HVAC systems did not appear to converge
   **   ~~~   ** Air System Named = CENTRAL SYSTEM did not converge for mass flow rate
   **   ~~~   ** Check values should be zero. Most Recent values listed first.
   **   ~~~   ** Demand-to-Supply interface mass flow rate check value iteration history trace: 0.220031,0.220031,0.220031,0.220031,0.220031,0.220031,0.220031,0.220031,0.220031,0.220031,
   **   ~~~   ** Supply-to-demand interface deck 1 mass flow rate check value iteration history trace: 0.220031,0.220031,0.220031,0.220031,0.220031,0.220031,0.220031,0.220031,0.220031,0.220031,
   **   ~~~   ** Air System Named = CENTRAL SYSTEM did not converge for energy
   **   ~~~   ** Check values should be zero. Most Recent values listed first.
   **   ~~~   ** Demand-to-Supply interface energy check value iteration history trace: 5227.490978,5227.490978,5227.490978,5227.490979,5227.490979,5227.490979,5227.490980,5227.490980,5227.490980,5227.490980,
   **   ~~~   ** Supply-to-demand interface deck 1 energy check value iteration history trace: 2940.653499,2940.653499,2940.653499,2940.653499,2940.653499,2940.653499,2940.653500,2940.653500,2940.653500,2940.653500,
   ** Warning ** SimHVAC: Maximum iterations (20) exceeded for all HVAC loops, at ANNUAL, 04/08 11:39 - 11:42
   **   ~~~   ** The solution for one or more of the Air Loop HVAC systems did not appear to converge
   **   ~~~   ** Air System Named = CENTRAL SYSTEM did not converge for mass flow rate
   **   ~~~   ** Check values should be zero. Most Recent values listed first.
   **   ~~~   ** Demand-to-Supply interface mass flow rate check value iteration history trace: 9.132959E-002,9.132959E-002,9.132959E-002,9.132959E-002,9.132959E-002,9.132959E-002,9.132960E-002,9.132960E-002,9.132960E-002,9.132960E-002,
   **   ~~~   ** Supply-to-demand interface deck 1 mass flow rate check value iteration history trace: 9.132959E-002,9.132959E-002,9.132959E-002,9.132959E-002,9.132959E-002,9.132959E-002,9.132960E-002,9.132960E-002,9.132960E-002,9.132960E-002,
   **   ~~~   ** Air System Named = CENTRAL SYSTEM did not converge for energy
   **   ~~~   ** Check values should be zero. Most Recent values listed first.
   **   ~~~   ** Demand-to-Supply interface energy check value iteration history trace: 2154.944592,2154.944592,2154.944592,2154.944592,2154.944592,2154.944592,2154.944593,2154.944593,2154.944593,2154.944593,
   **   ~~~   ** Supply-to-demand interface deck 1 energy check value iteration history trace: 798.709066,798.709066,798.709066,798.709066,798.709066,798.709066,798.709066,798.709066,798.709066,798.709066,
   ************* Simulation Error Summary *************
   ** Warning ** The following Report Variables were requested but not generated -- check.rdd file
   **   ~~~   ** Either the IDF did not contain these elements, the variable name is misspelled,
   **   ~~~   ** or the requested variable is an advanced output which requires Output : Diagnostics, DisplayAdvancedReportVariables;
   ************* Key=*, VarName=BASEBOARD TOTAL HEATING ENERGY, Frequency=
   ************* Key=*, VarName=WATER HEATER NATURALGAS ENERGY, Frequency=
   ************* Key=*, VarName=COOLING COIL TOTAL HEATING ENERGY, Frequency=
   ************* There are 34 unused schedules in input.
   ************* There are 388 unused week schedules in input.
   ************* There are 396 unused day schedules in input.
   ************* Use Output:Diagnostics,DisplayUnusedSchedules; to see them.
   *************
   ************* ===== Recurring Error Summary =====
   ************* The following recurring error messages occurred.
   *************
   *************  ** Warning ** "TOTAL HOT WATER LOAD" - Target water temperature should be less than or equal to the hot water temperature error continues...
   *************  **   ~~~   **   This error occurred 152281 total times;
   *************  **   ~~~   **   during Warmup 0 times;
   *************  **   ~~~   **   during Sizing 0 times.
   *************  **   ~~~   **   Max=11.308253  Min=3.674930E-004
   *************
   *************  ** Warning ** SimHVAC: Exceeding Maximum iterations for all HVAC loops, during ANNUAL continues
   *************  **   ~~~   **   This error occurred 9 total times;
   *************  **   ~~~   **   during Warmup 0 times;
   *************  **   ~~~   **   during Sizing 0 times.
   *************
   *************
   ************* ===== Final Error Summary =====
   ************* The following error categories occurred.  Consider correcting or noting.
   ************* Nominally Unused Constructions
   ************* ..The nominally unused constructions warning is provided to alert you to potential conditions that can cause
   ************* ..extra time during simulation. Each construction is calculated by the algorithm indicated in the HeatBalanceAlgorithm
   ************* ..object. You may remove the constructions indicated (when you use the DisplayExtraWarnings option).
   *************
   ************* EnergyPlus Warmup Error Summary. During Warmup: 0 Warning; 0 Severe Errors.
   ************* EnergyPlus Sizing Error Summary. During Sizing: 4 Warning; 0 Severe Errors.
   ************* EnergyPlus Completed Successfully-- 152321 Warning; 0 Severe Errors; Elapsed Time=00hr 01min 35.73sec
