Program Version,EnergyPlus, Version 22.2.0-c249759bad, YMD=2023.09.01 19:04,
   ************* Beginning Zone Sizing Calculations
   ** Warning ** ProcessScheduleInput: Schedule:Constant="ALWAYS ON DISCRETE", Schedule Type Limits Name="ONOFF" not found -- will not be validated
   ** Warning ** Foundation:Kiva="KIVA FOUNDATION", no Interior Horizontal Insulation Material Name defined
   **   ~~~   ** Interior Horizontal Insulation Depth will not be used.
   ** Warning ** CheckUsedConstructions: There are 15 nominally unused constructions in input.
   **   ~~~   ** Each Unused construction is shown.
   ************* Construction=INTERIOR FLOOR
   ************* Construction=INTERIOR WINDOW
   ************* Construction=EXTERIOR DOOR
   ************* Construction=INTERIOR DOOR
   ************* Construction=GABLE CONSTRUCTION
   ************* Construction=CRAWL_FLOOR
   ************* Construction=INSULATED PIPE
   ************* Construction=PLAIN PIPE
   ************* Construction=TDD PIPE
   ************* Construction=TDD DOME
   ************* Construction=TDD DIFFUSER
   ************* Construction=CRAWL WALL
   ************* Construction=CEILING-FLOOR-LAYER
   ************* Construction=SLAB CONSTRUCTION W FULL R10 INSULATION
   ************* Construction=SLAB CONSTRUCTION W FULL R5 INSULATION
   ** Warning ** GetDXCoils: Coil:Heating:DX:SingleSpeed="DX_HEATING_COIL" curve values
   **   ~~~   ** ... Defrost Energy Input Ratio Function of Temperature Curve Name = DEFROSTEIR output is not equal to 1.0 (+ or - 10%) at rated conditions.
   **   ~~~   ** ... Curve output at rated conditions = 0.152
   ************* Beginning System Sizing Calculations
   ************* Beginning Plant Sizing Calculations
   ** Warning ** SizeDXCoil Coil:Cooling:DX:SingleSpeed DX_COOLING_COIL
   **   ~~~   ** ...Gross Rated Total Cooling Capacity [W] will be limited by the maximum rated volume flow per rated total capacity ratio.
   **   ~~~   ** ...DX coil volume flow rate ( m3/s ) = 0.415234
   **   ~~~   ** ...Requested capacity ( W ) = 6361.424
   **   ~~~   ** ...Requested flow/capacity ratio ( m3/s/W ) = 6.527E-005
   **   ~~~   ** ...Maximum flow/capacity ratio ( m3/s/W ) = 6.041E-005
   **   ~~~   ** ...Adjusted capacity ( W ) = 6873.606
   ** Warning ** Coil:WaterHeating:AirToWaterHeatPump:Wrapped "HEAT PUMP WATER HEATER EVAPORATOR": Rated air volume flow rate per watt of rated total water heating capacity is out of range
   **   ~~~   ** Min Rated Vol Flow Per Watt=[4.027E-005], Rated Vol Flow Per Watt=[1.510E-004], Max Rated Vol Flow Per Watt=[8.056E-005]. See Input-Output Reference Manual for valid range.
   ************* SizeFan: : Potential issue with equipment sizing for Fan:OnOff HEAT PUMP WATER HEATER FAN
   **   ~~~   ** User-Specified Maximum Flow Rate [m3/s] = 0.22653
   **   ~~~   ** differs from Design Size Maximum Flow Rate [m3/s] = 7.55250E-002
   **   ~~~   ** This may, or may not, indicate mismatched component sizes.
   **   ~~~   ** Verify that the value entered is intended and is consistent with other components.
   ** Warning ** Water heater = WATER HEATER TANK:  Recovery Efficiency and Energy Factor could not be calculated during the test for standard ratings
   **   ~~~   ** Setpoint was never recovered and/or heater never turned on
   ** Warning ** Check input. Pump nominal power or motor efficiency is set to 0, for pump=MAINS PRESSURE
   ** Warning ** Output:Meter: invalid Key Name="ELECTRIC_RANGE:INTERIOREQUIPMENT:ELECTRICITY" - not found.
   ** Warning ** Output:Meter: invalid Key Name="ELECTRIC_DRYER:INTERIOREQUIPMENT:ELECTRICITY" - not found.
   ** Warning ** Output:Meter: invalid Key Name="HEATRECOVERY:ELECTRICITY" - not found.
   ** Warning ** Output:Meter: invalid Key Name="HEATING:NATURALGAS" - not found.
   ** Warning ** Output:Meter: invalid Key Name="WATERSYSTEMS:NATURALGAS" - not found.
   ** Warning ** Output:Meter: invalid Key Name="PROPANE:FACILITY" - not found.
   ** Warning ** Output:Meter: invalid Key Name="HEATING:PROPANE" - not found.
   ************* Testing Individual Branch Integrity
   ************* All Branches passed integrity testing
   ************* Testing Individual Supply Air Path Integrity
   ************* All Supply Air Paths passed integrity testing
   ************* Testing Individual Return Air Path Integrity
   ************* All Return Air Paths passed integrity testing
   ************* No node connection errors were found.
   ************* Beginning Simulation
   ** Warning ** AirflowNetwork::Solver::validate_distribution: Heat pump water heater is simulated along with an AirflowNetwork but is not included in the AirflowNetwork.
   ** Warning ** CalcEquipmentFlowRates: "TOTAL HOT WATER LOAD" - Target water temperature is greater than the hot water temperature by (0.85 C)
   **   ~~~   **  Environment=EXTREME_WINTER, at Simulation time=01/15 03:45 - 04:00
   **   ~~~   ** ...target water temperature     = 53.33 C
   **   ~~~   ** ...hot water temperature        = 52.49 C
   **   ~~~   ** ...Target water temperature should be less than or equal to the hot water temperature. Verify temperature setpoints and schedules.
   ** Severe  ** CheckWarmupConvergence: Loads Initialization, Zone="ATTIC" did not converge after 25 warmup days.
   **   ~~~   ** See Warmup Convergence Information in .eio file for details.
   **   ~~~   ** ...Environment(RunPeriod)="ANNUAL"
   **   ~~~   ** ..Max Temp Comparison = 8.70E-002 vs Temperature Convergence Tolerance=5.00E-002 - Fail Convergence
   **   ~~~   ** ..Min Temp Comparison = 8.45E-002 vs Temperature Convergence Tolerance=5.00E-002 - Fail Convergence
   **   ~~~   ** ..Max Heat Load Comparison = 0.0000 vs Loads Convergence Tolerance=5.00E-002 - Pass Convergence
   **   ~~~   ** ..Max Cool Load Comparison = 0.0000 vs Loads Convergence Tolerance=5.00E-002 - Pass Convergence
   ** Warning ** SimHVAC: Maximum iterations (20) exceeded for all HVAC loops, at ANNUAL, 01/09 05:15 - 05:20
   **   ~~~   ** The solution for one or more of the Air Loop HVAC systems did not appear to converge
   **   ~~~   ** Air System Named = CENTRAL SYSTEM did not converge for mass flow rate
   **   ~~~   ** Check values should be zero. Most Recent values listed first.
   **   ~~~   ** Demand-to-Supply interface mass flow rate check value iteration history trace: 5.550983E-002,5.550983E-002,5.550983E-002,5.550983E-002,5.550983E-002,5.550983E-002,5.550983E-002,5.550983E-002,5.550983E-002,5.550983E-002,
   **   ~~~   ** Supply-to-demand interface deck 1 mass flow rate check value iteration history trace: 5.550983E-002,5.550983E-002,5.550983E-002,5.550983E-002,5.550983E-002,5.550983E-002,5.550983E-002,5.550983E-002,5.550983E-002,5.550983E-002,
   **   ~~~   ** Air System Named = CENTRAL SYSTEM did not converge for energy
   **   ~~~   ** Check values should be zero. Most Recent values listed first.
   **   ~~~   ** Demand-to-Supply interface energy check value iteration history trace: 1099.666105,1099.666105,1099.666105,1099.666105,1099.666104,1099.666104,1099.666104,1099.666104,1099.666104,1099.666104,
   **   ~~~   ** Supply-to-demand interface deck 1 energy check value iteration history trace: 1970.781963,1970.781963,1970.781963,1970.781963,1970.781963,1970.781963,1970.781963,1970.781963,1970.781963,1970.781963,
   ** Warning ** SimHVAC: Maximum iterations (20) exceeded for all HVAC loops, at ANNUAL, 01/16 13:00 - 13:15
   **   ~~~   ** The solution for one or more of the Air Loop HVAC systems did not appear to converge
   **   ~~~   ** Air System Named = CENTRAL SYSTEM did not converge for mass flow rate
   **   ~~~   ** Check values should be zero. Most Recent values listed first.
   **   ~~~   ** Demand-to-Supply interface mass flow rate check value iteration history trace: 6.914842E-002,6.914842E-002,6.914842E-002,6.914842E-002,6.914842E-002,6.914842E-002,6.914842E-002,6.914842E-002,6.914842E-002,6.914842E-002,
   **   ~~~   ** Supply-to-demand interface deck 1 mass flow rate check value iteration history trace: 6.914842E-002,6.914842E-002,6.914842E-002,6.914842E-002,6.914842E-002,6.914842E-002,6.914842E-002,6.914842E-002,6.914842E-002,6.914842E-002,
   **   ~~~   ** Air System Named = CENTRAL SYSTEM did not converge for energy
   **   ~~~   ** Check values should be zero. Most Recent values listed first.
   **   ~~~   ** Demand-to-Supply interface energy check value iteration history trace: 1370.376741,1370.376741,1370.376741,1370.376740,1370.376740,1370.376740,1370.376740,1370.376740,1370.376740,1370.376740,
   **   ~~~   ** Supply-to-demand interface deck 1 energy check value iteration history trace: 2117.857066,2117.857066,2117.857065,2117.857065,2117.857065,2117.857065,2117.857065,2117.857065,2117.857065,2117.857064,
   ** Warning ** SimHVAC: Maximum iterations (20) exceeded for all HVAC loops, at ANNUAL, 02/06 13:23 - 13:30
   **   ~~~   ** The solution for one or more of the Air Loop HVAC systems did not appear to converge
   **   ~~~   ** Air System Named = CENTRAL SYSTEM did not converge for mass flow rate
   **   ~~~   ** Check values should be zero. Most Recent values listed first.
   **   ~~~   ** Demand-to-Supply interface mass flow rate check value iteration history trace: 5.220109E-002,5.220109E-002,5.220109E-002,5.220109E-002,5.220109E-002,5.220109E-002,5.220109E-002,5.220109E-002,5.220109E-002,5.220109E-002,
   **   ~~~   ** Supply-to-demand interface deck 1 mass flow rate check value iteration history trace: 5.220109E-002,5.220109E-002,5.220109E-002,5.220109E-002,5.220109E-002,5.220109E-002,5.220109E-002,5.220109E-002,5.220109E-002,5.220109E-002,
   **   ~~~   ** Air System Named = CENTRAL SYSTEM did not converge for energy
   **   ~~~   ** Check values should be zero. Most Recent values listed first.
   **   ~~~   ** Demand-to-Supply interface energy check value iteration history trace: 1034.363615,1034.363615,1034.363615,1034.363615,1034.363615,1034.363615,1034.363615,1034.363615,1034.363615,1034.363615,
   **   ~~~   ** Supply-to-demand interface deck 1 energy check value iteration history trace: 1763.447030,1763.447030,1763.447029,1763.447029,1763.447029,1763.447029,1763.447029,1763.447029,1763.447029,1763.447029,
   ** Warning ** SimHVAC: Maximum iterations (20) exceeded for all HVAC loops, at ANNUAL, 02/15 18:15 - 18:30
   **   ~~~   ** The solution for one or more of the Air Loop HVAC systems did not appear to converge
   **   ~~~   ** Air System Named = CENTRAL SYSTEM did not converge for mass flow rate
   **   ~~~   ** Check values should be zero. Most Recent values listed first.
   **   ~~~   ** Demand-to-Supply interface mass flow rate check value iteration history trace: 1.592060E-002,1.592060E-002,1.592060E-002,1.592060E-002,1.592060E-002,1.592060E-002,1.592060E-002,1.592060E-002,1.592060E-002,1.592060E-002,
   **   ~~~   ** Supply-to-demand interface deck 1 mass flow rate check value iteration history trace: 1.592060E-002,1.592060E-002,1.592060E-002,1.592060E-002,1.592060E-002,1.592060E-002,1.592060E-002,1.592060E-002,1.592060E-002,1.592060E-002,
   **   ~~~   ** Air System Named = CENTRAL SYSTEM did not converge for energy
   **   ~~~   ** Check values should be zero. Most Recent values listed first.
   **   ~~~   ** Demand-to-Supply interface energy check value iteration history trace: 314.294294,314.294294,314.294294,314.294294,314.294294,314.294294,314.294294,314.294294,314.294294,314.294294,
   **   ~~~   ** Supply-to-demand interface deck 1 energy check value iteration history trace: 496.186724,496.186724,496.186724,496.186724,496.186724,496.186724,496.186724,496.186724,496.186724,496.186724,
   ** Warning ** SimHVAC: Maximum iterations (20) exceeded for all HVAC loops, at ANNUAL, 03/07 11:53 - 12:00
   **   ~~~   ** The solution for one or more of the Air Loop HVAC systems did not appear to converge
   **   ~~~   ** Air System Named = CENTRAL SYSTEM did not converge for mass flow rate
   **   ~~~   ** Check values should be zero. Most Recent values listed first.
   **   ~~~   ** Demand-to-Supply interface mass flow rate check value iteration history trace: 5.843449E-002,5.843449E-002,5.843449E-002,5.843449E-002,5.843449E-002,5.843449E-002,5.843449E-002,5.843449E-002,5.843449E-002,5.843449E-002,
   **   ~~~   ** Supply-to-demand interface deck 1 mass flow rate check value iteration history trace: 5.843449E-002,5.843449E-002,5.843449E-002,5.843449E-002,5.843449E-002,5.843449E-002,5.843449E-002,5.843449E-002,5.843449E-002,5.843449E-002,
   **   ~~~   ** Air System Named = CENTRAL SYSTEM did not converge for energy
   **   ~~~   ** Check values should be zero. Most Recent values listed first.
   **   ~~~   ** Demand-to-Supply interface energy check value iteration history trace: 1154.358377,1154.358377,1154.358377,1154.358377,1154.358377,1154.358377,1154.358377,1154.358377,1154.358377,1154.358377,
   **   ~~~   ** Supply-to-demand interface deck 1 energy check value iteration history trace: 1979.449233,1979.449233,1979.449232,1979.449232,1979.449232,1979.449232,1979.449232,1979.449232,1979.449232,1979.449232,
   ** Warning ** SimHVAC: Maximum iterations (20) exceeded for all HVAC loops, at ANNUAL, 03/16 12:38 - 12:45
   **   ~~~   ** The solution for one or more of the Air Loop HVAC systems did not appear to converge
   **   ~~~   ** Air System Named = CENTRAL SYSTEM did not converge for mass flow rate
   **   ~~~   ** Check values should be zero. Most Recent values listed first.
   **   ~~~   ** Demand-to-Supply interface mass flow rate check value iteration history trace: 5.756743E-002,5.756743E-002,5.756743E-002,5.756743E-002,5.756743E-002,5.756743E-002,5.756743E-002,5.756743E-002,5.756743E-002,5.756743E-002,
   **   ~~~   ** Supply-to-demand interface deck 1 mass flow rate check value iteration history trace: 5.756743E-002,5.756743E-002,5.756743E-002,5.756743E-002,5.756743E-002,5.756743E-002,5.756743E-002,5.756743E-002,5.756743E-002,5.756743E-002,
   **   ~~~   ** Air System Named = CENTRAL SYSTEM did not converge for energy
   **   ~~~   ** Check values should be zero. Most Recent values listed first.
   **   ~~~   ** Demand-to-Supply interface energy check value iteration history trace: 1130.719866,1130.719866,1130.719866,1130.719866,1130.719866,1130.719866,1130.719866,1130.719866,1130.719866,1130.719866,
   **   ~~~   ** Supply-to-demand interface deck 1 energy check value iteration history trace: 2006.859112,2006.859112,2006.859112,2006.859112,2006.859112,2006.859112,2006.859111,2006.859111,2006.859111,2006.859111,
   ** Warning ** SimHVAC: Maximum iterations (20) exceeded for all HVAC loops, at ANNUAL, 04/20 01:45 - 02:00
   **   ~~~   ** The solution for one or more of the Air Loop HVAC systems did not appear to converge
   **   ~~~   ** Air System Named = CENTRAL SYSTEM did not converge for mass flow rate
   **   ~~~   ** Check values should be zero. Most Recent values listed first.
   **   ~~~   ** Demand-to-Supply interface mass flow rate check value iteration history trace: 5.661373E-002,5.661373E-002,5.661373E-002,5.661373E-002,5.661373E-002,5.661373E-002,5.661373E-002,5.661373E-002,5.661373E-002,5.661373E-002,
   **   ~~~   ** Supply-to-demand interface deck 1 mass flow rate check value iteration history trace: 5.661373E-002,5.661373E-002,5.661373E-002,5.661373E-002,5.661373E-002,5.661373E-002,5.661373E-002,5.661373E-002,5.661373E-002,5.661373E-002,
   **   ~~~   ** Air System Named = CENTRAL SYSTEM did not converge for energy
   **   ~~~   ** Check values should be zero. Most Recent values listed first.
   **   ~~~   ** Demand-to-Supply interface energy check value iteration history trace: 1055.814662,1055.814662,1055.814661,1055.814661,1055.814661,1055.814661,1055.814661,1055.814661,1055.814661,1055.814661,
   **   ~~~   ** Supply-to-demand interface deck 1 energy check value iteration history trace: 1846.950544,1846.950544,1846.950544,1846.950544,1846.950544,1846.950543,1846.950543,1846.950543,1846.950543,1846.950543,
   ** Warning ** SimHVAC: Maximum iterations (20) exceeded for all HVAC loops, at ANNUAL, 05/09 00:00 - 00:15
   **   ~~~   ** The solution for one or more of the Air Loop HVAC systems did not appear to converge
   **   ~~~   ** Air System Named = CENTRAL SYSTEM did not converge for mass flow rate
   **   ~~~   ** Check values should be zero. Most Recent values listed first.
   **   ~~~   ** Demand-to-Supply interface mass flow rate check value iteration history trace: 6.999496E-002,6.999496E-002,6.999496E-002,6.999496E-002,6.999496E-002,6.999496E-002,6.999496E-002,6.999496E-002,6.999496E-002,6.999496E-002,
   **   ~~~   ** Supply-to-demand interface deck 1 mass flow rate check value iteration history trace: 6.999496E-002,6.999496E-002,6.999496E-002,6.999496E-002,6.999496E-002,6.999496E-002,6.999496E-002,6.999496E-002,6.999496E-002,6.999496E-002,
   **   ~~~   ** Air System Named = CENTRAL SYSTEM did not converge for energy
   **   ~~~   ** Check values should be zero. Most Recent values listed first.
   **   ~~~   ** Demand-to-Supply interface energy check value iteration history trace: 1740.367412,1740.367413,1740.367413,1740.367414,1740.367414,1740.367414,1740.367415,1740.367415,1740.367416,1740.367416,
   **   ~~~   ** Supply-to-demand interface deck 1 energy check value iteration history trace: 790.192835,790.192835,790.192836,790.192836,790.192836,790.192836,790.192836,790.192836,790.192837,790.192837,
   ** Warning ** SimHVAC: Maximum iterations (20) exceeded for all HVAC loops, at ANNUAL, 05/17 14:10 - 14:15
   **   ~~~   ** The solution for one or more of the Air Loop HVAC systems did not appear to converge
   **   ~~~   ** Air System Named = CENTRAL SYSTEM did not converge for mass flow rate
   **   ~~~   ** Check values should be zero. Most Recent values listed first.
   **   ~~~   ** Demand-to-Supply interface mass flow rate check value iteration history trace: 0.211780,0.211780,0.211780,0.211780,0.211780,0.211780,0.211780,0.211780,0.211780,0.211780,
   **   ~~~   ** Supply-to-demand interface deck 1 mass flow rate check value iteration history trace: 0.211780,0.211780,0.211780,0.211780,0.211780,0.211780,0.211780,0.211780,0.211780,0.211780,
   **   ~~~   ** Air System Named = CENTRAL SYSTEM did not converge for energy
   **   ~~~   ** Check values should be zero. Most Recent values listed first.
   **   ~~~   ** Demand-to-Supply interface energy check value iteration history trace: 5049.663699,5049.663699,5049.663700,5049.663700,5049.663700,5049.663701,5049.663701,5049.663701,5049.663702,5049.663702,
   **   ~~~   ** Supply-to-demand interface deck 1 energy check value iteration history trace: 2135.674613,2135.674613,2135.674613,2135.674613,2135.674614,2135.674614,2135.674614,2135.674614,2135.674614,2135.674614,
   ** Warning ** SimHVAC: Maximum iterations (20) exceeded for all HVAC loops, at ANNUAL, 05/18 12:57 - 13:00
   **   ~~~   ** The solution for one or more of the Air Loop HVAC systems did not appear to converge
   **   ~~~   ** Air System Named = CENTRAL SYSTEM did not converge for mass flow rate
   **   ~~~   ** Check values should be zero. Most Recent values listed first.
   **   ~~~   ** Demand-to-Supply interface mass flow rate check value iteration history trace: 0.124516,0.124516,0.124516,0.124516,0.124516,0.124516,0.124516,0.124516,0.124516,0.124516,
   **   ~~~   ** Supply-to-demand interface deck 1 mass flow rate check value iteration history trace: 0.124516,0.124516,0.124516,0.124516,0.124516,0.124516,0.124516,0.124516,0.124516,0.124516,
   **   ~~~   ** Air System Named = CENTRAL SYSTEM did not converge for energy
   **   ~~~   ** Check values should be zero. Most Recent values listed first.
   **   ~~~   ** Demand-to-Supply interface energy check value iteration history trace: 2924.598439,2924.598439,2924.598439,2924.598440,2924.598440,2924.598440,2924.598440,2924.598440,2924.598440,2924.598441,
   **   ~~~   ** Supply-to-demand interface deck 1 energy check value iteration history trace: 1217.783813,1217.783813,1217.783814,1217.783814,1217.783814,1217.783814,1217.783814,1217.783814,1217.783814,1217.783814,
   ** Warning ** SimHVAC: Maximum iterations (20) exceeded for all HVAC loops, at ANNUAL, 10/26 09:15 - 09:18
   **   ~~~   ** The solution for one or more of the Air Loop HVAC systems did not appear to converge
   **   ~~~   ** Air System Named = CENTRAL SYSTEM did not converge for mass flow rate
   **   ~~~   ** Check values should be zero. Most Recent values listed first.
   **   ~~~   ** Demand-to-Supply interface mass flow rate check value iteration history trace: 7.578072E-002,7.578072E-002,7.578072E-002,7.578072E-002,7.578072E-002,7.578072E-002,7.578072E-002,7.578072E-002,7.578072E-002,7.578072E-002,
   **   ~~~   ** Supply-to-demand interface deck 1 mass flow rate check value iteration history trace: 7.578072E-002,7.578072E-002,7.578072E-002,7.578072E-002,7.578072E-002,7.578072E-002,7.578072E-002,7.578072E-002,7.578072E-002,7.578072E-002,
   **   ~~~   ** Air System Named = CENTRAL SYSTEM did not converge for energy
   **   ~~~   ** Check values should be zero. Most Recent values listed first.
   **   ~~~   ** Demand-to-Supply interface energy check value iteration history trace: 1501.689579,1501.689579,1501.689579,1501.689579,1501.689579,1501.689578,1501.689578,1501.689578,1501.689578,1501.689578,
   **   ~~~   ** Supply-to-demand interface deck 1 energy check value iteration history trace: 2333.135640,2333.135640,2333.135640,2333.135640,2333.135640,2333.135640,2333.135639,2333.135639,2333.135639,2333.135639,
   ** Warning ** SimHVAC: Maximum iterations (20) exceeded for all HVAC loops, at ANNUAL, 11/01 08:30 - 08:34
   **   ~~~   ** The solution for one or more of the Air Loop HVAC systems did not appear to converge
   **   ~~~   ** Air System Named = CENTRAL SYSTEM did not converge for mass flow rate
   **   ~~~   ** Check values should be zero. Most Recent values listed first.
   **   ~~~   ** Demand-to-Supply interface mass flow rate check value iteration history trace: 9.655694E-002,9.655694E-002,9.655694E-002,9.655694E-002,9.655694E-002,9.655694E-002,9.655694E-002,9.655694E-002,9.655694E-002,9.655694E-002,
   **   ~~~   ** Supply-to-demand interface deck 1 mass flow rate check value iteration history trace: 9.655694E-002,9.655694E-002,9.655694E-002,9.655694E-002,9.655694E-002,9.655694E-002,9.655694E-002,9.655694E-002,9.655694E-002,9.655694E-002,
   **   ~~~   ** Air System Named = CENTRAL SYSTEM did not converge for energy
   **   ~~~   ** Check values should be zero. Most Recent values listed first.
   **   ~~~   ** Demand-to-Supply interface energy check value iteration history trace: 1913.194770,1913.194770,1913.194769,1913.194769,1913.194769,1913.194769,1913.194769,1913.194769,1913.194769,1913.194769,
   **   ~~~   ** Supply-to-demand interface deck 1 energy check value iteration history trace: 2942.624785,2942.624785,2942.624785,2942.624784,2942.624784,2942.624784,2942.624784,2942.624783,2942.624783,2942.624783,
   ** Warning ** SimHVAC: Maximum iterations (20) exceeded for all HVAC loops, at ANNUAL, 11/04 03:30 - 03:45
   **   ~~~   ** The solution for one or more of the Air Loop HVAC systems did not appear to converge
   **   ~~~   ** Air System Named = CENTRAL SYSTEM did not converge for mass flow rate
   **   ~~~   ** Check values should be zero. Most Recent values listed first.
   **   ~~~   ** Demand-to-Supply interface mass flow rate check value iteration history trace: 3.153688E-002,3.153688E-002,3.153688E-002,3.153688E-002,3.153688E-002,3.153688E-002,3.153688E-002,3.153688E-002,3.153688E-002,3.153688E-002,
   **   ~~~   ** Supply-to-demand interface deck 1 mass flow rate check value iteration history trace: 3.153688E-002,3.153688E-002,3.153688E-002,3.153688E-002,3.153688E-002,3.153688E-002,3.153688E-002,3.153688E-002,3.153688E-002,3.153688E-002,
   **   ~~~   ** Air System Named = CENTRAL SYSTEM did not converge for energy
   **   ~~~   ** Check values should be zero. Most Recent values listed first.
   **   ~~~   ** Demand-to-Supply interface energy check value iteration history trace: 589.376409,589.376409,589.376409,589.376409,589.376409,589.376409,589.376409,589.376409,589.376409,589.376409,
   **   ~~~   ** Supply-to-demand interface deck 1 energy check value iteration history trace: 1061.647593,1061.647593,1061.647593,1061.647593,1061.647593,1061.647592,1061.647592,1061.647592,1061.647592,1061.647592,
   ** Warning ** SimHVAC: Maximum iterations (20) exceeded for all HVAC loops, at ANNUAL, 12/10 15:00 - 15:08
   **   ~~~   ** The solution for one or more of the Air Loop HVAC systems did not appear to converge
   **   ~~~   ** Air System Named = CENTRAL SYSTEM did not converge for mass flow rate
   **   ~~~   ** Check values should be zero. Most Recent values listed first.
   **   ~~~   ** Demand-to-Supply interface mass flow rate check value iteration history trace: 0.107525,0.107525,0.107525,0.107525,0.107525,0.107525,0.107525,0.107525,0.107525,0.107525,
   **   ~~~   ** Supply-to-demand interface deck 1 mass flow rate check value iteration history trace: 0.107525,0.107525,0.107525,0.107525,0.107525,0.107525,0.107525,0.107525,0.107525,0.107525,
   **   ~~~   ** Air System Named = CENTRAL SYSTEM did not converge for energy
   **   ~~~   ** Check values should be zero. Most Recent values listed first.
   **   ~~~   ** Demand-to-Supply interface energy check value iteration history trace: 2130.779094,2130.779094,2130.779094,2130.779093,2130.779093,2130.779093,2130.779093,2130.779093,2130.779093,2130.779092,
   **   ~~~   ** Supply-to-demand interface deck 1 energy check value iteration history trace: 3203.276620,3203.276619,3203.276619,3203.276619,3203.276619,3203.276618,3203.276618,3203.276618,3203.276618,3203.276617,
   ************* Simulation Error Summary *************
   ** Warning ** The following Report Variables were requested but not generated -- check.rdd file
   **   ~~~   ** Either the IDF did not contain these elements, the variable name is misspelled,
   **   ~~~   ** or the requested variable is an advanced output which requires Output : Diagnostics, DisplayAdvancedReportVariables;
   ************* Key=*, VarName=BASEBOARD TOTAL HEATING ENERGY, Frequency=
   ************* Key=*, VarName=WATER HEATER NATURALGAS ENERGY, Frequency=
   ************* Key=*, VarName=COOLING COIL TOTAL HEATING ENERGY, Frequency=
   ************* There are 34 unused schedules in input.
   ************* There are 388 unused week schedules in input.
   ************* There are 396 unused day schedules in input.
   ************* Use Output:Diagnostics,DisplayUnusedSchedules; to see them.
   *************
   ************* ===== Recurring Error Summary =====
   ************* The following recurring error messages occurred.
   *************
   *************  ** Warning ** "TOTAL HOT WATER LOAD" - Target water temperature should be less than or equal to the hot water temperature error continues...
   *************  **   ~~~   **   This error occurred 63897 total times;
   *************  **   ~~~   **   during Warmup 0 times;
   *************  **   ~~~   **   during Sizing 0 times.
   *************  **   ~~~   **   Max=6.393775  Min=1.138458E-003
   *************
   *************  ** Warning ** SimHVAC: Exceeding Maximum iterations for all HVAC loops, during ANNUAL continues
   *************  **   ~~~   **   This error occurred 2 total times;
   *************  **   ~~~   **   during Warmup 0 times;
   *************  **   ~~~   **   during Sizing 0 times.
   *************
   *************
   ************* ===== Final Error Summary =====
   ************* The following error categories occurred.  Consider correcting or noting.
   ************* Loads Initialization did not Converge
   ************* ..1) very high thermal mass such as very thick concrete (solution: increase max number of warmup
   ************* ..   days in the BUILDING object);
   ************* ..2) moderate mass and inadequate space conditioning such that the building keeps getting warmer
   ************* ..   and warmer on successive days (solution: add HVAC, check building thermal properties,
   ************* ..   check if infiltration is included, make sure HVAC properly controlled);
   ************* ..3) a soil layer modeled below the concrete slab - (solution remove this layer and read about
   ************* ..   ground temperatures in the Auxiliary Programs document).
   ************* ..4) unreasonable (too small) limits in the BUILDING object for temperature (.4 default) or
   ************* ..   loads tolerances (.04 default)
   ************* Nominally Unused Constructions
   ************* ..The nominally unused constructions warning is provided to alert you to potential conditions that can cause
   ************* ..extra time during simulation. Each construction is calculated by the algorithm indicated in the HeatBalanceAlgorithm
   ************* ..object. You may remove the constructions indicated (when you use the DisplayExtraWarnings option).
   *************
   ************* EnergyPlus Warmup Error Summary. During Warmup: 1 Warning; 1 Severe Errors.
   ************* EnergyPlus Sizing Error Summary. During Sizing: 4 Warning; 0 Severe Errors.
   ************* EnergyPlus Completed Successfully-- 63931 Warning; 1 Severe Errors; Elapsed Time=00hr 01min 43.46sec
