Program Version,EnergyPlus, Version 22.2.0-c249759bad, YMD=2023.09.01 19:54,
   ************* Beginning Zone Sizing Calculations
   ** Warning ** ProcessScheduleInput: Schedule:Constant="ALWAYS ON DISCRETE", Schedule Type Limits Name="ONOFF" not found -- will not be validated
   ** Warning ** Foundation:Kiva="KIVA FOUNDATION", no Interior Horizontal Insulation Material Name defined
   **   ~~~   ** Interior Horizontal Insulation Depth will not be used.
   ** Warning ** CheckUsedConstructions: There are 15 nominally unused constructions in input.
   **   ~~~   ** Each Unused construction is shown.
   ************* Construction=INTERIOR FLOOR
   ************* Construction=INTERIOR WINDOW
   ************* Construction=EXTERIOR DOOR
   ************* Construction=INTERIOR DOOR
   ************* Construction=GABLE CONSTRUCTION
   ************* Construction=CRAWL_FLOOR
   ************* Construction=INSULATED PIPE
   ************* Construction=PLAIN PIPE
   ************* Construction=TDD PIPE
   ************* Construction=TDD DOME
   ************* Construction=TDD DIFFUSER
   ************* Construction=CRAWL WALL
   ************* Construction=CEILING-FLOOR-LAYER
   ************* Construction=SLAB CONSTRUCTION W FULL R10 INSULATION
   ************* Construction=SLAB CONSTRUCTION W FULL R5 INSULATION
   ** Warning ** GetDXCoils: Coil:Heating:DX:SingleSpeed="DX_HEATING_COIL" curve values
   **   ~~~   ** ... Defrost Energy Input Ratio Function of Temperature Curve Name = DEFROSTEIR output is not equal to 1.0 (+ or - 10%) at rated conditions.
   **   ~~~   ** ... Curve output at rated conditions = 0.152
   ************* Beginning System Sizing Calculations
   ************* Beginning Plant Sizing Calculations
   ** Warning ** Coil:WaterHeating:AirToWaterHeatPump:Wrapped "HEAT PUMP WATER HEATER EVAPORATOR": Rated air volume flow rate per watt of rated total water heating capacity is out of range
   **   ~~~   ** Min Rated Vol Flow Per Watt=[4.027E-005], Rated Vol Flow Per Watt=[1.510E-004], Max Rated Vol Flow Per Watt=[8.056E-005]. See Input-Output Reference Manual for valid range.
   ************* SizeFan: : Potential issue with equipment sizing for Fan:OnOff HEAT PUMP WATER HEATER FAN
   **   ~~~   ** User-Specified Maximum Flow Rate [m3/s] = 0.22653
   **   ~~~   ** differs from Design Size Maximum Flow Rate [m3/s] = 7.55250E-002
   **   ~~~   ** This may, or may not, indicate mismatched component sizes.
   **   ~~~   ** Verify that the value entered is intended and is consistent with other components.
   ** Warning ** Water heater = WATER HEATER TANK:  Recovery Efficiency and Energy Factor could not be calculated during the test for standard ratings
   **   ~~~   ** Setpoint was never recovered and/or heater never turned on
   ** Warning ** Check input. Pump nominal power or motor efficiency is set to 0, for pump=MAINS PRESSURE
   ** Warning ** Output:Meter: invalid Key Name="ELECTRIC_RANGE:INTERIOREQUIPMENT:ELECTRICITY" - not found.
   ** Warning ** Output:Meter: invalid Key Name="ELECTRIC_DRYER:INTERIOREQUIPMENT:ELECTRICITY" - not found.
   ** Warning ** Output:Meter: invalid Key Name="HEATRECOVERY:ELECTRICITY" - not found.
   ** Warning ** Output:Meter: invalid Key Name="HEATING:NATURALGAS" - not found.
   ** Warning ** Output:Meter: invalid Key Name="WATERSYSTEMS:NATURALGAS" - not found.
   ** Warning ** Output:Meter: invalid Key Name="PROPANE:FACILITY" - not found.
   ** Warning ** Output:Meter: invalid Key Name="HEATING:PROPANE" - not found.
   ************* Testing Individual Branch Integrity
   ************* All Branches passed integrity testing
   ************* Testing Individual Supply Air Path Integrity
   ************* All Supply Air Paths passed integrity testing
   ************* Testing Individual Return Air Path Integrity
   ************* All Return Air Paths passed integrity testing
   ************* No node connection errors were found.
   ************* Beginning Simulation
   ** Warning ** AirflowNetwork::Solver::validate_distribution: Heat pump water heater is simulated along with an AirflowNetwork but is not included in the AirflowNetwork.
   ** Warning ** CalcEquipmentFlowRates: "TOTAL HOT WATER LOAD" - Target water temperature is greater than the hot water temperature by (2.34 C)
   **   ~~~   **  Environment=EXTREME_WINTER, at Simulation time=01/13 06:00 - 06:15
   **   ~~~   ** ...target water temperature     = 53.33 C
   **   ~~~   ** ...hot water temperature        = 51.00 C
   **   ~~~   ** ...Target water temperature should be less than or equal to the hot water temperature. Verify temperature setpoints and schedules.
   ** Warning ** SimHVAC: Maximum iterations (20) exceeded for all HVAC loops, at ANNUAL, 01/07 10:00 - 10:03
   **   ~~~   ** The solution for one or more of the Air Loop HVAC systems did not appear to converge
   **   ~~~   ** Air System Named = CENTRAL SYSTEM did not converge for mass flow rate
   **   ~~~   ** Check values should be zero. Most Recent values listed first.
   **   ~~~   ** Demand-to-Supply interface mass flow rate check value iteration history trace: 5.901315E-002,5.901315E-002,5.901315E-002,5.901315E-002,5.901315E-002,5.901315E-002,5.901315E-002,5.901315E-002,5.901315E-002,5.901315E-002,
   **   ~~~   ** Supply-to-demand interface deck 1 mass flow rate check value iteration history trace: 5.901315E-002,5.901315E-002,5.901315E-002,5.901315E-002,5.901315E-002,5.901315E-002,5.901315E-002,5.901315E-002,5.901315E-002,5.901315E-002,
   **   ~~~   ** Air System Named = CENTRAL SYSTEM did not converge for energy
   **   ~~~   ** Check values should be zero. Most Recent values listed first.
   **   ~~~   ** Demand-to-Supply interface energy check value iteration history trace: 1167.766050,1167.766050,1167.766050,1167.766050,1167.766050,1167.766050,1167.766050,1167.766050,1167.766050,1167.766050,
   **   ~~~   ** Supply-to-demand interface deck 1 energy check value iteration history trace: 2062.588429,2062.588429,2062.588429,2062.588429,2062.588429,2062.588428,2062.588428,2062.588428,2062.588428,2062.588428,
   ** Warning ** SimHVAC: Maximum iterations (20) exceeded for all HVAC loops, at ANNUAL, 03/08 09:08 - 09:15
   **   ~~~   ** The solution for one or more of the Air Loop HVAC systems did not appear to converge
   **   ~~~   ** Air System Named = CENTRAL SYSTEM did not converge for mass flow rate
   **   ~~~   ** Check values should be zero. Most Recent values listed first.
   **   ~~~   ** Demand-to-Supply interface mass flow rate check value iteration history trace: 0.235901,0.235901,0.235901,0.235901,0.235901,0.235901,0.235901,0.235901,0.235901,0.235901,
   **   ~~~   ** Supply-to-demand interface deck 1 mass flow rate check value iteration history trace: 0.235901,0.235901,0.235901,0.235901,0.235901,0.235901,0.235901,0.235901,0.235901,0.235901,
   **   ~~~   ** Air System Named = CENTRAL SYSTEM did not converge for energy
   **   ~~~   ** Check values should be zero. Most Recent values listed first.
   **   ~~~   ** Demand-to-Supply interface energy check value iteration history trace: 5635.469069,5635.469069,5635.469070,5635.469070,5635.469071,5635.469071,5635.469072,5635.469072,5635.469073,5635.469073,
   **   ~~~   ** Supply-to-demand interface deck 1 energy check value iteration history trace: 3341.606208,3341.606209,3341.606209,3341.606209,3341.606210,3341.606210,3341.606210,3341.606210,3341.606211,3341.606211,
   ** Warning ** SimHVAC: Maximum iterations (20) exceeded for all HVAC loops, at ANNUAL, 03/09 08:00 - 08:15
   **   ~~~   ** The solution for one or more of the Air Loop HVAC systems did not appear to converge
   **   ~~~   ** Air System Named = CENTRAL SYSTEM did not converge for mass flow rate
   **   ~~~   ** Check values should be zero. Most Recent values listed first.
   **   ~~~   ** Demand-to-Supply interface mass flow rate check value iteration history trace: 0.133412,0.133412,0.133412,0.133412,0.133412,0.133412,0.133412,0.133412,0.133412,0.133412,
   **   ~~~   ** Supply-to-demand interface deck 1 mass flow rate check value iteration history trace: 0.133412,0.133412,0.133412,0.133412,0.133412,0.133412,0.133412,0.133412,0.133412,0.133412,
   **   ~~~   ** Air System Named = CENTRAL SYSTEM did not converge for energy
   **   ~~~   ** Check values should be zero. Most Recent values listed first.
   **   ~~~   ** Demand-to-Supply interface energy check value iteration history trace: 3171.247981,3171.247981,3171.247982,3171.247982,3171.247982,3171.247983,3171.247983,3171.247983,3171.247983,3171.247984,
   **   ~~~   ** Supply-to-demand interface deck 1 energy check value iteration history trace: 1932.214202,1932.214202,1932.214202,1932.214203,1932.214203,1932.214203,1932.214203,1932.214203,1932.214203,1932.214204,
   ** Warning ** SimHVAC: Maximum iterations (20) exceeded for all HVAC loops, at ANNUAL, 03/10 09:30 - 09:45
   **   ~~~   ** The solution for one or more of the Air Loop HVAC systems did not appear to converge
   **   ~~~   ** Air System Named = CENTRAL SYSTEM did not converge for mass flow rate
   **   ~~~   ** Check values should be zero. Most Recent values listed first.
   **   ~~~   ** Demand-to-Supply interface mass flow rate check value iteration history trace: 2.693662E-002,2.693662E-002,2.693662E-002,2.693662E-002,2.693662E-002,2.693662E-002,2.693662E-002,2.693662E-002,2.693662E-002,2.693662E-002,
   **   ~~~   ** Supply-to-demand interface deck 1 mass flow rate check value iteration history trace: 2.693662E-002,2.693662E-002,2.693662E-002,2.693662E-002,2.693662E-002,2.693662E-002,2.693662E-002,2.693662E-002,2.693662E-002,2.693662E-002,
   **   ~~~   ** Air System Named = CENTRAL SYSTEM did not converge for energy
   **   ~~~   ** Check values should be zero. Most Recent values listed first.
   **   ~~~   ** Demand-to-Supply interface energy check value iteration history trace: 634.254656,634.254656,634.254656,634.254657,634.254657,634.254657,634.254657,634.254658,634.254658,634.254658,
   **   ~~~   ** Supply-to-demand interface deck 1 energy check value iteration history trace: 369.692051,369.692051,369.692051,369.692051,369.692051,369.692051,369.692051,369.692052,369.692052,369.692052,
   ** Warning ** SimHVAC: Maximum iterations (20) exceeded for all HVAC loops, at ANNUAL, 03/12 08:25 - 08:30
   **   ~~~   ** The solution for one or more of the Air Loop HVAC systems did not appear to converge
   **   ~~~   ** Air System Named = CENTRAL SYSTEM did not converge for mass flow rate
   **   ~~~   ** Check values should be zero. Most Recent values listed first.
   **   ~~~   ** Demand-to-Supply interface mass flow rate check value iteration history trace: 0.137587,0.137587,0.137587,0.137587,0.137587,0.137587,0.137587,0.137587,0.137587,0.137587,
   **   ~~~   ** Supply-to-demand interface deck 1 mass flow rate check value iteration history trace: 0.137587,0.137587,0.137587,0.137587,0.137587,0.137587,0.137587,0.137587,0.137587,0.137587,
   **   ~~~   ** Air System Named = CENTRAL SYSTEM did not converge for energy
   **   ~~~   ** Check values should be zero. Most Recent values listed first.
   **   ~~~   ** Demand-to-Supply interface energy check value iteration history trace: 3238.551863,3238.551864,3238.551865,3238.551866,3238.551867,3238.551868,3238.551869,3238.551870,3238.551871,3238.551872,
   **   ~~~   ** Supply-to-demand interface deck 1 energy check value iteration history trace: 1813.524826,1813.524827,1813.524828,1813.524828,1813.524829,1813.524829,1813.524830,1813.524830,1813.524831,1813.524831,
   ** Warning ** SimHVAC: Maximum iterations (20) exceeded for all HVAC loops, at ANNUAL, 03/12 09:27 - 09:30
   **   ~~~   ** The solution for one or more of the Air Loop HVAC systems did not appear to converge
   **   ~~~   ** Air System Named = CENTRAL SYSTEM did not converge for mass flow rate
   **   ~~~   ** Check values should be zero. Most Recent values listed first.
   **   ~~~   ** Demand-to-Supply interface mass flow rate check value iteration history trace: 0.164400,0.164400,0.164400,0.164400,0.164400,0.164400,0.164400,0.164400,0.164400,0.164400,
   **   ~~~   ** Supply-to-demand interface deck 1 mass flow rate check value iteration history trace: 0.164400,0.164400,0.164400,0.164400,0.164400,0.164400,0.164400,0.164400,0.164400,0.164400,
   **   ~~~   ** Air System Named = CENTRAL SYSTEM did not converge for energy
   **   ~~~   ** Check values should be zero. Most Recent values listed first.
   **   ~~~   ** Demand-to-Supply interface energy check value iteration history trace: 3862.615918,3862.615919,3862.615920,3862.615921,3862.615922,3862.615923,3862.615924,3862.615925,3862.615926,3862.615927,
   **   ~~~   ** Supply-to-demand interface deck 1 energy check value iteration history trace: 2125.831244,2125.831245,2125.831245,2125.831246,2125.831247,2125.831247,2125.831248,2125.831248,2125.831249,2125.831249,
   ** Warning ** SimHVAC: Maximum iterations (20) exceeded for all HVAC loops, at ANNUAL, 03/13 09:30 - 09:45
   **   ~~~   ** The solution for one or more of the Air Loop HVAC systems did not appear to converge
   **   ~~~   ** Air System Named = CENTRAL SYSTEM did not converge for mass flow rate
   **   ~~~   ** Check values should be zero. Most Recent values listed first.
   **   ~~~   ** Demand-to-Supply interface mass flow rate check value iteration history trace: 0.102598,0.102598,0.102598,0.102598,0.102598,0.102598,0.102598,0.102598,0.102598,0.102598,
   **   ~~~   ** Supply-to-demand interface deck 1 mass flow rate check value iteration history trace: 0.102598,0.102598,0.102598,0.102598,0.102598,0.102598,0.102598,0.102598,0.102598,0.102598,
   **   ~~~   ** Air System Named = CENTRAL SYSTEM did not converge for energy
   **   ~~~   ** Check values should be zero. Most Recent values listed first.
   **   ~~~   ** Demand-to-Supply interface energy check value iteration history trace: 2457.718151,2457.718152,2457.718152,2457.718152,2457.718152,2457.718152,2457.718152,2457.718153,2457.718153,2457.718153,
   **   ~~~   ** Supply-to-demand interface deck 1 energy check value iteration history trace: 1355.561641,1355.561641,1355.561641,1355.561641,1355.561641,1355.561641,1355.561641,1355.561642,1355.561642,1355.561642,
   ** Warning ** SimHVAC: Maximum iterations (20) exceeded for all HVAC loops, at ANNUAL, 03/14 23:45 - 24:00
   **   ~~~   ** The solution for one or more of the Air Loop HVAC systems did not appear to converge
   **   ~~~   ** Air System Named = CENTRAL SYSTEM did not converge for mass flow rate
   **   ~~~   ** Check values should be zero. Most Recent values listed first.
   **   ~~~   ** Demand-to-Supply interface mass flow rate check value iteration history trace: 0.121175,0.121175,0.121175,0.121175,0.121175,0.121175,0.121175,0.121175,0.121175,0.121175,
   **   ~~~   ** Supply-to-demand interface deck 1 mass flow rate check value iteration history trace: 0.121175,0.121175,0.121175,0.121175,0.121175,0.121175,0.121175,0.121175,0.121175,0.121175,
   **   ~~~   ** Air System Named = CENTRAL SYSTEM did not converge for energy
   **   ~~~   ** Check values should be zero. Most Recent values listed first.
   **   ~~~   ** Demand-to-Supply interface energy check value iteration history trace: 3050.605550,3050.605551,3050.605552,3050.605552,3050.605553,3050.605554,3050.605555,3050.605555,3050.605556,3050.605557,
   **   ~~~   ** Supply-to-demand interface deck 1 energy check value iteration history trace: 1615.109484,1615.109484,1615.109485,1615.109485,1615.109485,1615.109486,1615.109486,1615.109487,1615.109487,1615.109487,
   ** Warning ** SimHVAC: Maximum iterations (20) exceeded for all HVAC loops, at ANNUAL, 12/15 08:30 - 08:45
   **   ~~~   ** The solution for one or more of the Air Loop HVAC systems did not appear to converge
   **   ~~~   ** Air System Named = CENTRAL SYSTEM did not converge for mass flow rate
   **   ~~~   ** Check values should be zero. Most Recent values listed first.
   **   ~~~   ** Demand-to-Supply interface mass flow rate check value iteration history trace: 8.965592E-002,8.965592E-002,8.965592E-002,8.965592E-002,8.965592E-002,8.965592E-002,8.965592E-002,8.965592E-002,8.965592E-002,8.965592E-002,
   **   ~~~   ** Supply-to-demand interface deck 1 mass flow rate check value iteration history trace: 8.965592E-002,8.965592E-002,8.965592E-002,8.965592E-002,8.965592E-002,8.965592E-002,8.965592E-002,8.965592E-002,8.965592E-002,8.965592E-002,
   **   ~~~   ** Air System Named = CENTRAL SYSTEM did not converge for energy
   **   ~~~   ** Check values should be zero. Most Recent values listed first.
   **   ~~~   ** Demand-to-Supply interface energy check value iteration history trace: 2141.865671,2141.865672,2141.865672,2141.865673,2141.865674,2141.865674,2141.865675,2141.865676,2141.865676,2141.865677,
   **   ~~~   ** Supply-to-demand interface deck 1 energy check value iteration history trace: 1211.192582,1211.192582,1211.192582,1211.192583,1211.192583,1211.192584,1211.192584,1211.192584,1211.192585,1211.192585,
   ** Warning ** SimHVAC: Maximum iterations (20) exceeded for all HVAC loops, at ANNUAL, 12/17 12:45 - 13:00
   **   ~~~   ** The solution for one or more of the Air Loop HVAC systems did not appear to converge
   **   ~~~   ** Air System Named = CENTRAL SYSTEM did not converge for mass flow rate
   **   ~~~   ** Check values should be zero. Most Recent values listed first.
   **   ~~~   ** Demand-to-Supply interface mass flow rate check value iteration history trace: 0.133646,0.133646,0.133646,0.133646,0.133646,0.133646,0.133646,0.133646,0.133646,0.133646,
   **   ~~~   ** Supply-to-demand interface deck 1 mass flow rate check value iteration history trace: 0.133646,0.133646,0.133646,0.133646,0.133646,0.133646,0.133646,0.133646,0.133646,0.133646,
   **   ~~~   ** Air System Named = CENTRAL SYSTEM did not converge for energy
   **   ~~~   ** Check values should be zero. Most Recent values listed first.
   **   ~~~   ** Demand-to-Supply interface energy check value iteration history trace: 3161.092202,3161.092202,3161.092202,3161.092202,3161.092202,3161.092203,3161.092203,3161.092203,3161.092203,3161.092204,
   **   ~~~   ** Supply-to-demand interface deck 1 energy check value iteration history trace: 1415.243230,1415.243230,1415.243230,1415.243230,1415.243230,1415.243230,1415.243230,1415.243230,1415.243230,1415.243230,
   ** Warning ** SimHVAC: Maximum iterations (20) exceeded for all HVAC loops, at ANNUAL, 12/19 12:15 - 12:30
   **   ~~~   ** The solution for one or more of the Air Loop HVAC systems did not appear to converge
   **   ~~~   ** Air System Named = CENTRAL SYSTEM did not converge for mass flow rate
   **   ~~~   ** Check values should be zero. Most Recent values listed first.
   **   ~~~   ** Demand-to-Supply interface mass flow rate check value iteration history trace: 7.052446E-002,7.052446E-002,7.052446E-002,7.052446E-002,7.052446E-002,7.052446E-002,7.052446E-002,7.052446E-002,7.052446E-002,7.052446E-002,
   **   ~~~   ** Supply-to-demand interface deck 1 mass flow rate check value iteration history trace: 7.052446E-002,7.052446E-002,7.052446E-002,7.052446E-002,7.052446E-002,7.052446E-002,7.052446E-002,7.052446E-002,7.052446E-002,7.052446E-002,
   **   ~~~   ** Air System Named = CENTRAL SYSTEM did not converge for energy
   **   ~~~   ** Check values should be zero. Most Recent values listed first.
   **   ~~~   ** Demand-to-Supply interface energy check value iteration history trace: 1663.083412,1663.083412,1663.083412,1663.083412,1663.083413,1663.083413,1663.083413,1663.083413,1663.083413,1663.083413,
   **   ~~~   ** Supply-to-demand interface deck 1 energy check value iteration history trace: 945.757391,945.757391,945.757391,945.757391,945.757392,945.757392,945.757392,945.757392,945.757392,945.757392,
   ** Warning ** SimHVAC: Maximum iterations (20) exceeded for all HVAC loops, at ANNUAL, 12/24 18:45 - 19:00
   **   ~~~   ** The solution for one or more of the Air Loop HVAC systems did not appear to converge
   **   ~~~   ** Air System Named = CENTRAL SYSTEM did not converge for mass flow rate
   **   ~~~   ** Check values should be zero. Most Recent values listed first.
   **   ~~~   ** Demand-to-Supply interface mass flow rate check value iteration history trace: 6.471928E-002,6.471928E-002,6.471928E-002,6.471928E-002,6.471928E-002,6.471928E-002,6.471928E-002,6.471928E-002,6.471928E-002,6.471928E-002,
   **   ~~~   ** Supply-to-demand interface deck 1 mass flow rate check value iteration history trace: 6.471928E-002,6.471928E-002,6.471928E-002,6.471928E-002,6.471928E-002,6.471928E-002,6.471928E-002,6.471928E-002,6.471928E-002,6.471928E-002,
   **   ~~~   ** Air System Named = CENTRAL SYSTEM did not converge for energy
   **   ~~~   ** Check values should be zero. Most Recent values listed first.
   **   ~~~   ** Demand-to-Supply interface energy check value iteration history trace: 1282.651600,1282.651600,1282.651600,1282.651600,1282.651600,1282.651600,1282.651600,1282.651600,1282.651600,1282.651600,
   **   ~~~   ** Supply-to-demand interface deck 1 energy check value iteration history trace: 2189.679723,2189.679723,2189.679723,2189.679723,2189.679723,2189.679723,2189.679723,2189.679723,2189.679723,2189.679722,
   ** Warning ** SimHVAC: Maximum iterations (20) exceeded for all HVAC loops, at ANNUAL, 12/25 17:35 - 17:40
   **   ~~~   ** The solution for one or more of the Air Loop HVAC systems did not appear to converge
   **   ~~~   ** Air System Named = CENTRAL SYSTEM did not converge for mass flow rate
   **   ~~~   ** Check values should be zero. Most Recent values listed first.
   **   ~~~   ** Demand-to-Supply interface mass flow rate check value iteration history trace: 6.542318E-002,6.542318E-002,6.542318E-002,6.542318E-002,6.542318E-002,6.542318E-002,6.542318E-002,6.542318E-002,6.542318E-002,6.542318E-002,
   **   ~~~   ** Supply-to-demand interface deck 1 mass flow rate check value iteration history trace: 6.542318E-002,6.542318E-002,6.542318E-002,6.542318E-002,6.542318E-002,6.542318E-002,6.542318E-002,6.542318E-002,6.542318E-002,6.542318E-002,
   **   ~~~   ** Air System Named = CENTRAL SYSTEM did not converge for energy
   **   ~~~   ** Check values should be zero. Most Recent values listed first.
   **   ~~~   ** Demand-to-Supply interface energy check value iteration history trace: 1295.967826,1295.967826,1295.967826,1295.967826,1295.967826,1295.967825,1295.967825,1295.967825,1295.967825,1295.967825,
   **   ~~~   ** Supply-to-demand interface deck 1 energy check value iteration history trace: 2235.108200,2235.108200,2235.108200,2235.108200,2235.108199,2235.108199,2235.108199,2235.108199,2235.108199,2235.108199,
   ** Warning ** SimHVAC: Maximum iterations (20) exceeded for all HVAC loops, at ANNUAL, 12/30 08:33 - 08:36
   **   ~~~   ** The solution for one or more of the Air Loop HVAC systems did not appear to converge
   **   ~~~   ** Air System Named = CENTRAL SYSTEM did not converge for mass flow rate
   **   ~~~   ** Check values should be zero. Most Recent values listed first.
   **   ~~~   ** Demand-to-Supply interface mass flow rate check value iteration history trace: 6.894600E-002,6.894600E-002,6.894600E-002,6.894600E-002,6.894600E-002,6.894600E-002,6.894600E-002,6.894600E-002,6.894600E-002,6.894600E-002,
   **   ~~~   ** Supply-to-demand interface deck 1 mass flow rate check value iteration history trace: 6.894600E-002,6.894600E-002,6.894600E-002,6.894600E-002,6.894600E-002,6.894600E-002,6.894600E-002,6.894600E-002,6.894600E-002,6.894600E-002,
   **   ~~~   ** Air System Named = CENTRAL SYSTEM did not converge for energy
   **   ~~~   ** Check values should be zero. Most Recent values listed first.
   **   ~~~   ** Demand-to-Supply interface energy check value iteration history trace: 1362.446485,1362.446485,1362.446485,1362.446485,1362.446485,1362.446485,1362.446485,1362.446485,1362.446485,1362.446484,
   **   ~~~   ** Supply-to-demand interface deck 1 energy check value iteration history trace: 2340.052960,2340.052960,2340.052960,2340.052960,2340.052960,2340.052960,2340.052959,2340.052959,2340.052959,2340.052959,
   ************* Simulation Error Summary *************
   ** Warning ** The following Report Variables were requested but not generated -- check.rdd file
   **   ~~~   ** Either the IDF did not contain these elements, the variable name is misspelled,
   **   ~~~   ** or the requested variable is an advanced output which requires Output : Diagnostics, DisplayAdvancedReportVariables;
   ************* Key=*, VarName=BASEBOARD TOTAL HEATING ENERGY, Frequency=
   ************* Key=*, VarName=WATER HEATER NATURALGAS ENERGY, Frequency=
   ************* Key=*, VarName=COOLING COIL TOTAL HEATING ENERGY, Frequency=
   ************* There are 34 unused schedules in input.
   ************* There are 388 unused week schedules in input.
   ************* There are 396 unused day schedules in input.
   ************* Use Output:Diagnostics,DisplayUnusedSchedules; to see them.
   *************
   ************* ===== Recurring Error Summary =====
   ************* The following recurring error messages occurred.
   *************
   *************  ** Warning ** "TOTAL HOT WATER LOAD" - Target water temperature should be less than or equal to the hot water temperature error continues...
   *************  **   ~~~   **   This error occurred 131995 total times;
   *************  **   ~~~   **   during Warmup 0 times;
   *************  **   ~~~   **   during Sizing 0 times.
   *************  **   ~~~   **   Max=10.569598  Min=2.786782E-003
   *************
   *************
   ************* ===== Final Error Summary =====
   ************* The following error categories occurred.  Consider correcting or noting.
   ************* Nominally Unused Constructions
   ************* ..The nominally unused constructions warning is provided to alert you to potential conditions that can cause
   ************* ..extra time during simulation. Each construction is calculated by the algorithm indicated in the HeatBalanceAlgorithm
   ************* ..object. You may remove the constructions indicated (when you use the DisplayExtraWarnings option).
   *************
   ************* EnergyPlus Warmup Error Summary. During Warmup: 1 Warning; 0 Severe Errors.
   ************* EnergyPlus Sizing Error Summary. During Sizing: 4 Warning; 0 Severe Errors.
   ************* EnergyPlus Completed Successfully-- 132026 Warning; 0 Severe Errors; Elapsed Time=00hr 01min 39.59sec
