Program Version,EnergyPlus, Version 22.2.0-c249759bad, YMD=2023.09.01 14:36,
   ************* Beginning Zone Sizing Calculations
   ** Warning ** ProcessScheduleInput: Schedule:Constant="ALWAYS ON DISCRETE", Schedule Type Limits Name="ONOFF" not found -- will not be validated
   ** Warning ** Foundation:Kiva="KIVA FOUNDATION", no Interior Horizontal Insulation Material Name defined
   **   ~~~   ** Interior Horizontal Insulation Depth will not be used.
   ** Warning ** CheckUsedConstructions: There are 15 nominally unused constructions in input.
   **   ~~~   ** Each Unused construction is shown.
   ************* Construction=INTERIOR FLOOR
   ************* Construction=INTERIOR WINDOW
   ************* Construction=EXTERIOR DOOR
   ************* Construction=INTERIOR DOOR
   ************* Construction=GABLE CONSTRUCTION
   ************* Construction=CRAWL_FLOOR
   ************* Construction=INSULATED PIPE
   ************* Construction=PLAIN PIPE
   ************* Construction=TDD PIPE
   ************* Construction=TDD DOME
   ************* Construction=TDD DIFFUSER
   ************* Construction=CRAWL WALL
   ************* Construction=CEILING-FLOOR-LAYER
   ************* Construction=SLAB CONSTRUCTION W FULL R10 INSULATION
   ************* Construction=SLAB CONSTRUCTION W FULL R5 INSULATION
   ** Warning ** GetDXCoils: Coil:Heating:DX:SingleSpeed="DX_HEATING_COIL" curve values
   **   ~~~   ** ... Defrost Energy Input Ratio Function of Temperature Curve Name = DEFROSTEIR output is not equal to 1.0 (+ or - 10%) at rated conditions.
   **   ~~~   ** ... Curve output at rated conditions = 0.152
   ************* Beginning System Sizing Calculations
   ************* Beginning Plant Sizing Calculations
   ** Warning ** SizeDXCoil Coil:Cooling:DX:SingleSpeed DX_COOLING_COIL
   **   ~~~   ** ...Gross Rated Total Cooling Capacity [W] will be limited by the maximum rated volume flow per rated total capacity ratio.
   **   ~~~   ** ...DX coil volume flow rate ( m3/s ) = 0.479416
   **   ~~~   ** ...Requested capacity ( W ) = 7644.637
   **   ~~~   ** ...Requested flow/capacity ratio ( m3/s/W ) = 6.271E-005
   **   ~~~   ** ...Maximum flow/capacity ratio ( m3/s/W ) = 6.041E-005
   **   ~~~   ** ...Adjusted capacity ( W ) = 7936.045
   ** Warning ** Coil:WaterHeating:AirToWaterHeatPump:Wrapped "HEAT PUMP WATER HEATER EVAPORATOR": Rated air volume flow rate per watt of rated total water heating capacity is out of range
   **   ~~~   ** Min Rated Vol Flow Per Watt=[4.027E-005], Rated Vol Flow Per Watt=[1.386E-004], Max Rated Vol Flow Per Watt=[8.056E-005]. See Input-Output Reference Manual for valid range.
   ** Warning ** Water heater = WATER HEATER TANK:  Recovery Efficiency and Energy Factor could not be calculated during the test for standard ratings
   **   ~~~   ** Setpoint was never recovered and/or heater never turned on
   ** Warning ** Check input. Pump nominal power or motor efficiency is set to 0, for pump=MAINS PRESSURE
   ** Warning ** Output:Meter: invalid Key Name="ELECTRIC_RANGE:INTERIOREQUIPMENT:ELECTRICITY" - not found.
   ** Warning ** Output:Meter: invalid Key Name="ELECTRIC_DRYER:INTERIOREQUIPMENT:ELECTRICITY" - not found.
   ** Warning ** Output:Meter: invalid Key Name="HEATRECOVERY:ELECTRICITY" - not found.
   ** Warning ** Output:Meter: invalid Key Name="HEATING:NATURALGAS" - not found.
   ** Warning ** Output:Meter: invalid Key Name="WATERSYSTEMS:NATURALGAS" - not found.
   ** Warning ** Output:Meter: invalid Key Name="PROPANE:FACILITY" - not found.
   ** Warning ** Output:Meter: invalid Key Name="HEATING:PROPANE" - not found.
   ************* Testing Individual Branch Integrity
   ************* All Branches passed integrity testing
   ************* Testing Individual Supply Air Path Integrity
   ************* All Supply Air Paths passed integrity testing
   ************* Testing Individual Return Air Path Integrity
   ************* All Return Air Paths passed integrity testing
   ************* No node connection errors were found.
   ************* Beginning Simulation
   ** Warning ** AirflowNetwork::Solver::validate_distribution: Heat pump water heater is simulated along with an AirflowNetwork but is not included in the AirflowNetwork.
   ** Warning ** CalcEquipmentFlowRates: "TOTAL HOT WATER LOAD" - Target water temperature is greater than the hot water temperature by (1.70 C)
   **   ~~~   **  Environment=EXTREME_WINTER, at Simulation time=12/22 06:00 - 06:15
   **   ~~~   ** ...target water temperature     = 53.33 C
   **   ~~~   ** ...hot water temperature        = 51.64 C
   **   ~~~   ** ...Target water temperature should be less than or equal to the hot water temperature. Verify temperature setpoints and schedules.
   ** Warning ** SimHVAC: Maximum iterations (20) exceeded for all HVAC loops, at EXTREME_WINTER, 12/25 17:15 - 17:22
   **   ~~~   ** The solution for one or more of the Air Loop HVAC systems did not appear to converge
   **   ~~~   ** Air System Named = CENTRAL SYSTEM did not converge for mass flow rate
   **   ~~~   ** Check values should be zero. Most Recent values listed first.
   **   ~~~   ** Demand-to-Supply interface mass flow rate check value iteration history trace: 7.747905E-002,7.747905E-002,7.747905E-002,7.747905E-002,7.747905E-002,7.747905E-002,7.747905E-002,7.747905E-002,7.747905E-002,7.747905E-002,
   **   ~~~   ** Supply-to-demand interface deck 1 mass flow rate check value iteration history trace: 7.747905E-002,7.747905E-002,7.747905E-002,7.747905E-002,7.747905E-002,7.747905E-002,7.747905E-002,7.747905E-002,7.747905E-002,7.747905E-002,
   **   ~~~   ** Air System Named = CENTRAL SYSTEM did not converge for energy
   **   ~~~   ** Check values should be zero. Most Recent values listed first.
   **   ~~~   ** Demand-to-Supply interface energy check value iteration history trace: 1536.491101,1536.491101,1536.491101,1536.491101,1536.491101,1536.491101,1536.491101,1536.491101,1536.491101,1536.491101,
   **   ~~~   ** Supply-to-demand interface deck 1 energy check value iteration history trace: 2624.183272,2624.183272,2624.183272,2624.183272,2624.183272,2624.183271,2624.183271,2624.183271,2624.183271,2624.183271,
   ** Warning ** SimHVAC: Maximum iterations (20) exceeded for all HVAC loops, at EXTREME_WINTER, 12/25 19:00 - 19:08
   **   ~~~   ** The solution for one or more of the Air Loop HVAC systems did not appear to converge
   **   ~~~   ** Air System Named = CENTRAL SYSTEM did not converge for mass flow rate
   **   ~~~   ** Check values should be zero. Most Recent values listed first.
   **   ~~~   ** Demand-to-Supply interface mass flow rate check value iteration history trace: 8.908988E-002,8.908988E-002,8.908988E-002,8.908988E-002,8.908988E-002,8.908988E-002,8.908988E-002,8.908988E-002,8.908988E-002,8.908988E-002,
   **   ~~~   ** Supply-to-demand interface deck 1 mass flow rate check value iteration history trace: 8.908988E-002,8.908988E-002,8.908988E-002,8.908988E-002,8.908988E-002,8.908988E-002,8.908988E-002,8.908988E-002,8.908988E-002,8.908988E-002,
   **   ~~~   ** Air System Named = CENTRAL SYSTEM did not converge for energy
   **   ~~~   ** Check values should be zero. Most Recent values listed first.
   **   ~~~   ** Demand-to-Supply interface energy check value iteration history trace: 1760.395383,1760.395383,1760.395383,1760.395382,1760.395382,1760.395382,1760.395382,1760.395382,1760.395382,1760.395382,
   **   ~~~   ** Supply-to-demand interface deck 1 energy check value iteration history trace: 2973.562474,2973.562474,2973.562473,2973.562473,2973.562473,2973.562473,2973.562473,2973.562473,2973.562473,2973.562472,
   ** Warning ** SimHVAC: Maximum iterations (20) exceeded for all HVAC loops, at ANNUAL, 02/18 09:21 - 09:22
   **   ~~~   ** The solution for one or more of the Air Loop HVAC systems did not appear to converge
   **   ~~~   ** Air System Named = CENTRAL SYSTEM did not converge for mass flow rate
   **   ~~~   ** Check values should be zero. Most Recent values listed first.
   **   ~~~   ** Demand-to-Supply interface mass flow rate check value iteration history trace: 7.773934E-002,7.773934E-002,7.773934E-002,7.773934E-002,7.773934E-002,7.773934E-002,7.773934E-002,7.773934E-002,7.773934E-002,7.773934E-002,
   **   ~~~   ** Supply-to-demand interface deck 1 mass flow rate check value iteration history trace: 7.773934E-002,7.773934E-002,7.773934E-002,7.773934E-002,7.773934E-002,7.773934E-002,7.773934E-002,7.773934E-002,7.773934E-002,7.773934E-002,
   **   ~~~   ** Air System Named = CENTRAL SYSTEM did not converge for energy
   **   ~~~   ** Check values should be zero. Most Recent values listed first.
   **   ~~~   ** Demand-to-Supply interface energy check value iteration history trace: 1531.021645,1531.021645,1531.021645,1531.021645,1531.021645,1531.021645,1531.021645,1531.021645,1531.021645,1531.021645,
   **   ~~~   ** Supply-to-demand interface deck 1 energy check value iteration history trace: 2782.497963,2782.497963,2782.497963,2782.497963,2782.497963,2782.497963,2782.497963,2782.497963,2782.497963,2782.497963,
   ** Warning ** SimHVAC: Maximum iterations (20) exceeded for all HVAC loops, at ANNUAL, 02/19 09:45 - 10:00
   **   ~~~   ** The solution for one or more of the Air Loop HVAC systems did not appear to converge
   **   ~~~   ** Air System Named = CENTRAL SYSTEM did not converge for mass flow rate
   **   ~~~   ** Check values should be zero. Most Recent values listed first.
   **   ~~~   ** Demand-to-Supply interface mass flow rate check value iteration history trace: 7.745574E-002,7.745574E-002,7.745574E-002,7.745574E-002,7.745574E-002,7.745574E-002,7.745574E-002,7.745574E-002,7.745574E-002,7.745574E-002,
   **   ~~~   ** Supply-to-demand interface deck 1 mass flow rate check value iteration history trace: 7.745574E-002,7.745574E-002,7.745574E-002,7.745574E-002,7.745574E-002,7.745574E-002,7.745574E-002,7.745574E-002,7.745574E-002,7.745574E-002,
   **   ~~~   ** Air System Named = CENTRAL SYSTEM did not converge for energy
   **   ~~~   ** Check values should be zero. Most Recent values listed first.
   **   ~~~   ** Demand-to-Supply interface energy check value iteration history trace: 1531.011600,1531.011600,1531.011599,1531.011599,1531.011599,1531.011599,1531.011599,1531.011599,1531.011599,1531.011599,
   **   ~~~   ** Supply-to-demand interface deck 1 energy check value iteration history trace: 2722.715049,2722.715049,2722.715049,2722.715049,2722.715049,2722.715049,2722.715049,2722.715049,2722.715048,2722.715048,
   ** Warning ** SimHVAC: Maximum iterations (20) exceeded for all HVAC loops, at ANNUAL, 11/16 07:00 - 07:15
   **   ~~~   ** The solution for one or more of the Air Loop HVAC systems did not appear to converge
   **   ~~~   ** Air System Named = CENTRAL SYSTEM did not converge for mass flow rate
   **   ~~~   ** Check values should be zero. Most Recent values listed first.
   **   ~~~   ** Demand-to-Supply interface mass flow rate check value iteration history trace: 8.055163E-002,8.055163E-002,8.055163E-002,8.055163E-002,8.055163E-002,8.055163E-002,8.055163E-002,8.055163E-002,8.055163E-002,8.055163E-002,
   **   ~~~   ** Supply-to-demand interface deck 1 mass flow rate check value iteration history trace: 8.055163E-002,8.055163E-002,8.055163E-002,8.055163E-002,8.055163E-002,8.055163E-002,8.055163E-002,8.055163E-002,8.055163E-002,8.055163E-002,
   **   ~~~   ** Air System Named = CENTRAL SYSTEM did not converge for energy
   **   ~~~   ** Check values should be zero. Most Recent values listed first.
   **   ~~~   ** Demand-to-Supply interface energy check value iteration history trace: 1593.202084,1593.202084,1593.202084,1593.202084,1593.202084,1593.202084,1593.202084,1593.202084,1593.202084,1593.202084,
   **   ~~~   ** Supply-to-demand interface deck 1 energy check value iteration history trace: 2721.234419,2721.234419,2721.234419,2721.234419,2721.234418,2721.234418,2721.234418,2721.234418,2721.234418,2721.234418,
   ** Warning ** SimHVAC: Maximum iterations (20) exceeded for all HVAC loops, at ANNUAL, 11/19 09:27 - 09:30
   **   ~~~   ** The solution for one or more of the Air Loop HVAC systems did not appear to converge
   **   ~~~   ** Air System Named = CENTRAL SYSTEM did not converge for mass flow rate
   **   ~~~   ** Check values should be zero. Most Recent values listed first.
   **   ~~~   ** Demand-to-Supply interface mass flow rate check value iteration history trace: 0.243634,0.243634,0.243634,0.243634,0.243634,0.243634,0.243634,0.243634,0.243634,0.243634,
   **   ~~~   ** Supply-to-demand interface deck 1 mass flow rate check value iteration history trace: 0.243634,0.243634,0.243634,0.243634,0.243634,0.243634,0.243634,0.243634,0.243634,0.243634,
   **   ~~~   ** Air System Named = CENTRAL SYSTEM did not converge for energy
   **   ~~~   ** Check values should be zero. Most Recent values listed first.
   **   ~~~   ** Demand-to-Supply interface energy check value iteration history trace: 5809.135050,5809.135050,5809.135051,5809.135052,5809.135053,5809.135054,5809.135054,5809.135055,5809.135056,5809.135057,
   **   ~~~   ** Supply-to-demand interface deck 1 energy check value iteration history trace: 3033.145704,3033.145704,3033.145704,3033.145705,3033.145705,3033.145706,3033.145706,3033.145707,3033.145707,3033.145707,
   ** Warning ** SimHVAC: Maximum iterations (20) exceeded for all HVAC loops, at ANNUAL, 11/27 19:45 - 20:00
   **   ~~~   ** The solution for one or more of the Air Loop HVAC systems did not appear to converge
   **   ~~~   ** Air System Named = CENTRAL SYSTEM did not converge for mass flow rate
   **   ~~~   ** Check values should be zero. Most Recent values listed first.
   **   ~~~   ** Demand-to-Supply interface mass flow rate check value iteration history trace: 5.681338E-002,5.681338E-002,5.681338E-002,5.681338E-002,5.681338E-002,5.681338E-002,5.681338E-002,5.681338E-002,5.681338E-002,5.681338E-002,
   **   ~~~   ** Supply-to-demand interface deck 1 mass flow rate check value iteration history trace: 5.681338E-002,5.681338E-002,5.681338E-002,5.681338E-002,5.681338E-002,5.681338E-002,5.681338E-002,5.681338E-002,5.681338E-002,5.681338E-002,
   **   ~~~   ** Air System Named = CENTRAL SYSTEM did not converge for energy
   **   ~~~   ** Check values should be zero. Most Recent values listed first.
   **   ~~~   ** Demand-to-Supply interface energy check value iteration history trace: 1361.727808,1361.727808,1361.727808,1361.727808,1361.727808,1361.727808,1361.727809,1361.727809,1361.727809,1361.727809,
   **   ~~~   ** Supply-to-demand interface deck 1 energy check value iteration history trace: 613.323176,613.323176,613.323176,613.323176,613.323176,613.323176,613.323176,613.323177,613.323177,613.323177,
   ** Warning ** SimHVAC: Maximum iterations (20) exceeded for all HVAC loops, at ANNUAL, 11/28 18:50 - 18:55
   **   ~~~   ** The solution for one or more of the Air Loop HVAC systems did not appear to converge
   **   ~~~   ** Air System Named = CENTRAL SYSTEM did not converge for mass flow rate
   **   ~~~   ** Check values should be zero. Most Recent values listed first.
   **   ~~~   ** Demand-to-Supply interface mass flow rate check value iteration history trace: 0.133892,0.133892,0.133892,0.133892,0.133892,0.133892,0.133892,0.133892,0.133892,0.133892,
   **   ~~~   ** Supply-to-demand interface deck 1 mass flow rate check value iteration history trace: 0.133892,0.133892,0.133892,0.133892,0.133892,0.133892,0.133892,0.133892,0.133892,0.133892,
   **   ~~~   ** Air System Named = CENTRAL SYSTEM did not converge for energy
   **   ~~~   ** Check values should be zero. Most Recent values listed first.
   **   ~~~   ** Demand-to-Supply interface energy check value iteration history trace: 3147.023124,3147.023124,3147.023125,3147.023126,3147.023126,3147.023127,3147.023128,3147.023128,3147.023129,3147.023130,
   **   ~~~   ** Supply-to-demand interface deck 1 energy check value iteration history trace: 1500.243770,1500.243770,1500.243770,1500.243771,1500.243771,1500.243771,1500.243772,1500.243772,1500.243772,1500.243773,
   ** Warning ** SimHVAC: Maximum iterations (20) exceeded for all HVAC loops, at ANNUAL, 12/14 06:15 - 06:30
   **   ~~~   ** The solution for one or more of the Air Loop HVAC systems did not appear to converge
   **   ~~~   ** Air System Named = CENTRAL SYSTEM did not converge for mass flow rate
   **   ~~~   ** Check values should be zero. Most Recent values listed first.
   **   ~~~   ** Demand-to-Supply interface mass flow rate check value iteration history trace: 6.858634E-002,6.858634E-002,6.858634E-002,6.858634E-002,6.858634E-002,6.858634E-002,6.858634E-002,6.858634E-002,6.858634E-002,6.858634E-002,
   **   ~~~   ** Supply-to-demand interface deck 1 mass flow rate check value iteration history trace: 6.858634E-002,6.858634E-002,6.858634E-002,6.858634E-002,6.858634E-002,6.858634E-002,6.858634E-002,6.858634E-002,6.858634E-002,6.858634E-002,
   **   ~~~   ** Air System Named = CENTRAL SYSTEM did not converge for energy
   **   ~~~   ** Check values should be zero. Most Recent values listed first.
   **   ~~~   ** Demand-to-Supply interface energy check value iteration history trace: 1351.028348,1351.028348,1351.028348,1351.028348,1351.028348,1351.028348,1351.028347,1351.028347,1351.028347,1351.028347,
   **   ~~~   ** Supply-to-demand interface deck 1 energy check value iteration history trace: 2336.029767,2336.029766,2336.029766,2336.029766,2336.029766,2336.029766,2336.029766,2336.029766,2336.029766,2336.029766,
   ** Warning ** SimHVAC: Maximum iterations (20) exceeded for all HVAC loops, at ANNUAL, 12/14 07:00 - 07:15
   **   ~~~   ** The solution for one or more of the Air Loop HVAC systems did not appear to converge
   **   ~~~   ** Air System Named = CENTRAL SYSTEM did not converge for mass flow rate
   **   ~~~   ** Check values should be zero. Most Recent values listed first.
   **   ~~~   ** Demand-to-Supply interface mass flow rate check value iteration history trace: 7.141311E-002,7.141311E-002,7.141311E-002,7.141311E-002,7.141311E-002,7.141311E-002,7.141311E-002,7.141311E-002,7.141311E-002,7.141311E-002,
   **   ~~~   ** Supply-to-demand interface deck 1 mass flow rate check value iteration history trace: 7.141311E-002,7.141311E-002,7.141311E-002,7.141311E-002,7.141311E-002,7.141311E-002,7.141311E-002,7.141311E-002,7.141311E-002,7.141311E-002,
   **   ~~~   ** Air System Named = CENTRAL SYSTEM did not converge for energy
   **   ~~~   ** Check values should be zero. Most Recent values listed first.
   **   ~~~   ** Demand-to-Supply interface energy check value iteration history trace: 1410.236929,1410.236929,1410.236929,1410.236929,1410.236929,1410.236929,1410.236929,1410.236929,1410.236929,1410.236929,
   **   ~~~   ** Supply-to-demand interface deck 1 energy check value iteration history trace: 2439.112846,2439.112845,2439.112845,2439.112845,2439.112845,2439.112845,2439.112845,2439.112845,2439.112845,2439.112845,
   ************* Simulation Error Summary *************
   ** Warning ** The following Report Variables were requested but not generated -- check.rdd file
   **   ~~~   ** Either the IDF did not contain these elements, the variable name is misspelled,
   **   ~~~   ** or the requested variable is an advanced output which requires Output : Diagnostics, DisplayAdvancedReportVariables;
   ************* Key=*, VarName=BASEBOARD TOTAL HEATING ENERGY, Frequency=
   ************* Key=*, VarName=WATER HEATER NATURALGAS ENERGY, Frequency=
   ************* Key=*, VarName=COOLING COIL TOTAL HEATING ENERGY, Frequency=
   ************* There are 34 unused schedules in input.
   ************* There are 388 unused week schedules in input.
   ************* There are 396 unused day schedules in input.
   ************* Use Output:Diagnostics,DisplayUnusedSchedules; to see them.
   *************
   ************* ===== Recurring Error Summary =====
   ************* The following recurring error messages occurred.
   *************
   *************  ** Warning ** "TOTAL HOT WATER LOAD" - Target water temperature should be less than or equal to the hot water temperature error continues...
   *************  **   ~~~   **   This error occurred 142859 total times;
   *************  **   ~~~   **   during Warmup 0 times;
   *************  **   ~~~   **   during Sizing 0 times.
   *************  **   ~~~   **   Max=7.175716  Min=1.213724E-004
   *************
   *************
   ************* ===== Final Error Summary =====
   ************* The following error categories occurred.  Consider correcting or noting.
   ************* Nominally Unused Constructions
   ************* ..The nominally unused constructions warning is provided to alert you to potential conditions that can cause
   ************* ..extra time during simulation. Each construction is calculated by the algorithm indicated in the HeatBalanceAlgorithm
   ************* ..object. You may remove the constructions indicated (when you use the DisplayExtraWarnings option).
   *************
   ************* EnergyPlus Warmup Error Summary. During Warmup: 1 Warning; 0 Severe Errors.
   ************* EnergyPlus Sizing Error Summary. During Sizing: 4 Warning; 0 Severe Errors.
   ************* EnergyPlus Completed Successfully-- 142887 Warning; 0 Severe Errors; Elapsed Time=00hr 06min 48.03sec
