Program Version,EnergyPlus, Version 22.2.0-c249759bad, YMD=2023.09.01 15:08,
   ************* Beginning Zone Sizing Calculations
   ** Warning ** ProcessScheduleInput: Schedule:Constant="ALWAYS ON DISCRETE", Schedule Type Limits Name="ONOFF" not found -- will not be validated
   ** Warning ** Foundation:Kiva="KIVA FOUNDATION", no Interior Horizontal Insulation Material Name defined
   **   ~~~   ** Interior Horizontal Insulation Depth will not be used.
   ** Warning ** CheckUsedConstructions: There are 15 nominally unused constructions in input.
   **   ~~~   ** Each Unused construction is shown.
   ************* Construction=INTERIOR FLOOR
   ************* Construction=INTERIOR WINDOW
   ************* Construction=EXTERIOR DOOR
   ************* Construction=INTERIOR DOOR
   ************* Construction=GABLE CONSTRUCTION
   ************* Construction=CRAWL_FLOOR
   ************* Construction=INSULATED PIPE
   ************* Construction=PLAIN PIPE
   ************* Construction=TDD PIPE
   ************* Construction=TDD DOME
   ************* Construction=TDD DIFFUSER
   ************* Construction=CRAWL WALL
   ************* Construction=CEILING-FLOOR-LAYER
   ************* Construction=SLAB CONSTRUCTION W FULL R10 INSULATION
   ************* Construction=SLAB CONSTRUCTION W FULL R5 INSULATION
   ** Warning ** GetDXCoils: Coil:Heating:DX:SingleSpeed="DX_HEATING_COIL" curve values
   **   ~~~   ** ... Defrost Energy Input Ratio Function of Temperature Curve Name = DEFROSTEIR output is not equal to 1.0 (+ or - 10%) at rated conditions.
   **   ~~~   ** ... Curve output at rated conditions = 0.152
   ************* Beginning System Sizing Calculations
   ************* Beginning Plant Sizing Calculations
   ** Warning ** SizeDXCoil Coil:Cooling:DX:SingleSpeed DX_COOLING_COIL
   **   ~~~   ** ...Gross Rated Total Cooling Capacity [W] will be limited by the maximum rated volume flow per rated total capacity ratio.
   **   ~~~   ** ...DX coil volume flow rate ( m3/s ) = 0.578541
   **   ~~~   ** ...Requested capacity ( W ) = 9100.301
   **   ~~~   ** ...Requested flow/capacity ratio ( m3/s/W ) = 6.357E-005
   **   ~~~   ** ...Maximum flow/capacity ratio ( m3/s/W ) = 6.041E-005
   **   ~~~   ** ...Adjusted capacity ( W ) = 9576.914
   ** Warning ** SizeDXCoil Coil:Heating:DX:SingleSpeed DX_HEATING_COIL
   **   ~~~   ** ...Gross Rated Heating Capacity [W] will be limited by the maximum rated volume flow per rated total capacity ratio.
   **   ~~~   ** ...DX coil volume flow rate ( m3/s ) = 0.578541
   **   ~~~   ** ...Requested capacity ( W ) = 9576.914
   **   ~~~   ** ...Requested flow/capacity ratio ( m3/s/W ) = 6.041E-005
   **   ~~~   ** ...Maximum flow/capacity ratio ( m3/s/W ) = 6.041E-005
   **   ~~~   ** ...Adjusted capacity ( W ) = 9576.914
   ** Warning ** Coil:WaterHeating:AirToWaterHeatPump:Wrapped "HEAT PUMP WATER HEATER EVAPORATOR": Rated air volume flow rate per watt of rated total water heating capacity is out of range
   **   ~~~   ** Min Rated Vol Flow Per Watt=[4.027E-005], Rated Vol Flow Per Watt=[1.386E-004], Max Rated Vol Flow Per Watt=[8.056E-005]. See Input-Output Reference Manual for valid range.
   ** Warning ** Water heater = WATER HEATER TANK:  Recovery Efficiency and Energy Factor could not be calculated during the test for standard ratings
   **   ~~~   ** Setpoint was never recovered and/or heater never turned on
   ** Warning ** Check input. Pump nominal power or motor efficiency is set to 0, for pump=MAINS PRESSURE
   ** Warning ** AirflowNetwork::Solver::validate_distribution: Heat pump water heater is simulated along with an AirflowNetwork but is not included in the AirflowNetwork.
   ** Warning ** Output:Meter: invalid Key Name="ELECTRIC_RANGE:INTERIOREQUIPMENT:ELECTRICITY" - not found.
   ** Warning ** Output:Meter: invalid Key Name="ELECTRIC_DRYER:INTERIOREQUIPMENT:ELECTRICITY" - not found.
   ** Warning ** Output:Meter: invalid Key Name="HEATRECOVERY:ELECTRICITY" - not found.
   ** Warning ** Output:Meter: invalid Key Name="HEATING:NATURALGAS" - not found.
   ** Warning ** Output:Meter: invalid Key Name="WATERSYSTEMS:NATURALGAS" - not found.
   ** Warning ** Output:Meter: invalid Key Name="PROPANE:FACILITY" - not found.
   ** Warning ** Output:Meter: invalid Key Name="HEATING:PROPANE" - not found.
   ************* Testing Individual Branch Integrity
   ************* All Branches passed integrity testing
   ************* Testing Individual Supply Air Path Integrity
   ************* All Supply Air Paths passed integrity testing
   ************* Testing Individual Return Air Path Integrity
   ************* All Return Air Paths passed integrity testing
   ************* No node connection errors were found.
   ************* Beginning Simulation
   ** Warning ** CalcEquipmentFlowRates: "TOTAL HOT WATER LOAD" - Target water temperature is greater than the hot water temperature by (1.60 C)
   **   ~~~   **  Environment=EXTREME_WINTER, at Simulation time=12/22 06:00 - 06:15
   **   ~~~   ** ...target water temperature     = 53.33 C
   **   ~~~   ** ...hot water temperature        = 51.73 C
   **   ~~~   ** ...Target water temperature should be less than or equal to the hot water temperature. Verify temperature setpoints and schedules.
   ** Warning ** SimHVAC: Maximum iterations (20) exceeded for all HVAC loops, at EXTREME_WINTER, 12/27 10:36 - 10:39
   **   ~~~   ** The solution for one or more of the Air Loop HVAC systems did not appear to converge
   **   ~~~   ** Air System Named = CENTRAL SYSTEM did not converge for mass flow rate
   **   ~~~   ** Check values should be zero. Most Recent values listed first.
   **   ~~~   ** Demand-to-Supply interface mass flow rate check value iteration history trace: 7.375407E-002,7.375407E-002,7.375407E-002,7.375407E-002,7.375407E-002,7.375407E-002,7.375407E-002,7.375407E-002,7.375407E-002,7.375407E-002,
   **   ~~~   ** Supply-to-demand interface deck 1 mass flow rate check value iteration history trace: 7.375407E-002,7.375407E-002,7.375407E-002,7.375407E-002,7.375407E-002,7.375407E-002,7.375407E-002,7.375407E-002,7.375407E-002,7.375407E-002,
   **   ~~~   ** Air System Named = CENTRAL SYSTEM did not converge for energy
   **   ~~~   ** Check values should be zero. Most Recent values listed first.
   **   ~~~   ** Demand-to-Supply interface energy check value iteration history trace: 1453.144774,1453.144774,1453.144774,1453.144774,1453.144774,1453.144774,1453.144774,1453.144774,1453.144774,1453.144774,
   **   ~~~   ** Supply-to-demand interface deck 1 energy check value iteration history trace: 2348.719262,2348.719262,2348.719261,2348.719261,2348.719261,2348.719261,2348.719261,2348.719261,2348.719261,2348.719260,
   ** Warning ** SimHVAC: Maximum iterations (20) exceeded for all HVAC loops, at EXTREME_WINTER, 12/28 09:00 - 09:15
   **   ~~~   ** The solution for one or more of the Air Loop HVAC systems did not appear to converge
   **   ~~~   ** Air System Named = CENTRAL SYSTEM did not converge for mass flow rate
   **   ~~~   ** Check values should be zero. Most Recent values listed first.
   **   ~~~   ** Demand-to-Supply interface mass flow rate check value iteration history trace: 9.057738E-002,9.057738E-002,9.057738E-002,9.057738E-002,9.057738E-002,9.057738E-002,9.057738E-002,9.057738E-002,9.057738E-002,9.057738E-002,
   **   ~~~   ** Supply-to-demand interface deck 1 mass flow rate check value iteration history trace: 9.057738E-002,9.057738E-002,9.057738E-002,9.057738E-002,9.057738E-002,9.057738E-002,9.057738E-002,9.057738E-002,9.057738E-002,9.057738E-002,
   **   ~~~   ** Air System Named = CENTRAL SYSTEM did not converge for energy
   **   ~~~   ** Check values should be zero. Most Recent values listed first.
   **   ~~~   ** Demand-to-Supply interface energy check value iteration history trace: 1794.935143,1794.935143,1794.935143,1794.935142,1794.935142,1794.935142,1794.935142,1794.935142,1794.935142,1794.935142,
   **   ~~~   ** Supply-to-demand interface deck 1 energy check value iteration history trace: 2887.007423,2887.007423,2887.007423,2887.007423,2887.007423,2887.007423,2887.007422,2887.007422,2887.007422,2887.007422,
   ** Warning ** SimHVAC: Maximum iterations (20) exceeded for all HVAC loops, at EXTREME_WINTER, 01/04 09:00 - 09:02
   **   ~~~   ** The solution for one or more of the Air Loop HVAC systems did not appear to converge
   **   ~~~   ** Air System Named = CENTRAL SYSTEM did not converge for mass flow rate
   **   ~~~   ** Check values should be zero. Most Recent values listed first.
   **   ~~~   ** Demand-to-Supply interface mass flow rate check value iteration history trace: 0.105194,0.105194,0.105194,0.105194,0.105194,0.105194,0.105194,0.105194,0.105194,0.105194,
   **   ~~~   ** Supply-to-demand interface deck 1 mass flow rate check value iteration history trace: 0.105194,0.105194,0.105194,0.105194,0.105194,0.105194,0.105194,0.105194,0.105194,0.105194,
   **   ~~~   ** Air System Named = CENTRAL SYSTEM did not converge for energy
   **   ~~~   ** Check values should be zero. Most Recent values listed first.
   **   ~~~   ** Demand-to-Supply interface energy check value iteration history trace: 2084.576170,2084.576169,2084.576169,2084.576169,2084.576169,2084.576169,2084.576169,2084.576169,2084.576169,2084.576169,
   **   ~~~   ** Supply-to-demand interface deck 1 energy check value iteration history trace: 3306.890446,3306.890446,3306.890445,3306.890445,3306.890445,3306.890445,3306.890445,3306.890445,3306.890444,3306.890444,
   ** Warning ** SimHVAC: Maximum iterations (20) exceeded for all HVAC loops, at ANNUAL, 02/05 08:00 - 08:15
   **   ~~~   ** The solution for one or more of the Air Loop HVAC systems did not appear to converge
   **   ~~~   ** Air System Named = CENTRAL SYSTEM did not converge for mass flow rate
   **   ~~~   ** Check values should be zero. Most Recent values listed first.
   **   ~~~   ** Demand-to-Supply interface mass flow rate check value iteration history trace: 6.819193E-002,6.819193E-002,6.819193E-002,6.819193E-002,6.819193E-002,6.819193E-002,6.819193E-002,6.819193E-002,6.819193E-002,6.819193E-002,
   **   ~~~   ** Supply-to-demand interface deck 1 mass flow rate check value iteration history trace: 6.819193E-002,6.819193E-002,6.819193E-002,6.819193E-002,6.819193E-002,6.819193E-002,6.819193E-002,6.819193E-002,6.819193E-002,6.819193E-002,
   **   ~~~   ** Air System Named = CENTRAL SYSTEM did not converge for energy
   **   ~~~   ** Check values should be zero. Most Recent values listed first.
   **   ~~~   ** Demand-to-Supply interface energy check value iteration history trace: 1351.566823,1351.566822,1351.566822,1351.566822,1351.566822,1351.566822,1351.566822,1351.566822,1351.566822,1351.566822,
   **   ~~~   ** Supply-to-demand interface deck 1 energy check value iteration history trace: 2348.777279,2348.777279,2348.777279,2348.777279,2348.777278,2348.777278,2348.777278,2348.777278,2348.777278,2348.777278,
   ** Warning ** SimHVAC: Maximum iterations (20) exceeded for all HVAC loops, at ANNUAL, 03/25 10:04 - 10:08
   **   ~~~   ** The solution for one or more of the Air Loop HVAC systems did not appear to converge
   **   ~~~   ** Air System Named = CENTRAL SYSTEM did not converge for energy
   **   ~~~   ** Check values should be zero. Most Recent values listed first.
   **   ~~~   ** Demand-to-Supply interface energy check value iteration history trace: 119.731264,119.731264,119.731264,119.731264,119.731264,119.731264,119.731264,119.731264,119.731264,119.731264,
   **   ~~~   ** Supply-to-demand interface deck 1 energy check value iteration history trace: 49.635637,49.635637,49.635637,49.635637,49.635637,49.635637,49.635637,49.635637,49.635637,49.635637,
   ** Warning ** SimHVAC: Maximum iterations (20) exceeded for all HVAC loops, at ANNUAL, 03/26 09:45 - 10:00
   **   ~~~   ** The solution for one or more of the Air Loop HVAC systems did not appear to converge
   **   ~~~   ** Air System Named = CENTRAL SYSTEM did not converge for mass flow rate
   **   ~~~   ** Check values should be zero. Most Recent values listed first.
   **   ~~~   ** Demand-to-Supply interface mass flow rate check value iteration history trace: 4.896574E-002,4.896574E-002,4.896574E-002,4.896574E-002,4.896574E-002,4.896574E-002,4.896574E-002,4.896574E-002,4.896574E-002,4.896574E-002,
   **   ~~~   ** Supply-to-demand interface deck 1 mass flow rate check value iteration history trace: 4.896574E-002,4.896574E-002,4.896574E-002,4.896574E-002,4.896574E-002,4.896574E-002,4.896574E-002,4.896574E-002,4.896574E-002,4.896574E-002,
   **   ~~~   ** Air System Named = CENTRAL SYSTEM did not converge for energy
   **   ~~~   ** Check values should be zero. Most Recent values listed first.
   **   ~~~   ** Demand-to-Supply interface energy check value iteration history trace: 1159.620320,1159.620320,1159.620320,1159.620320,1159.620320,1159.620320,1159.620320,1159.620320,1159.620320,1159.620320,
   **   ~~~   ** Supply-to-demand interface deck 1 energy check value iteration history trace: 456.076249,456.076249,456.076249,456.076249,456.076249,456.076249,456.076249,456.076249,456.076249,456.076249,
   ** Warning ** SimHVAC: Maximum iterations (20) exceeded for all HVAC loops, at ANNUAL, 04/16 11:11 - 11:15
   **   ~~~   ** The solution for one or more of the Air Loop HVAC systems did not appear to converge
   **   ~~~   ** Air System Named = CENTRAL SYSTEM did not converge for mass flow rate
   **   ~~~   ** Check values should be zero. Most Recent values listed first.
   **   ~~~   ** Demand-to-Supply interface mass flow rate check value iteration history trace: 0.309791,0.309791,0.309791,0.309791,0.309791,0.309791,0.309791,0.309791,0.309791,0.309791,
   **   ~~~   ** Supply-to-demand interface deck 1 mass flow rate check value iteration history trace: 0.309791,0.309791,0.309791,0.309791,0.309791,0.309791,0.309791,0.309791,0.309791,0.309791,
   **   ~~~   ** Air System Named = CENTRAL SYSTEM did not converge for energy
   **   ~~~   ** Check values should be zero. Most Recent values listed first.
   **   ~~~   ** Demand-to-Supply interface energy check value iteration history trace: 7407.089608,7407.089609,7407.089609,7407.089610,7407.089610,7407.089611,7407.089611,7407.089612,7407.089612,7407.089613,
   **   ~~~   ** Supply-to-demand interface deck 1 energy check value iteration history trace: 3336.735922,3336.735922,3336.735922,3336.735923,3336.735923,3336.735923,3336.735923,3336.735923,3336.735924,3336.735924,
   ** Warning ** SimHVAC: Maximum iterations (20) exceeded for all HVAC loops, at ANNUAL, 11/22 05:55 - 06:00
   **   ~~~   ** The solution for one or more of the Air Loop HVAC systems did not appear to converge
   **   ~~~   ** Air System Named = CENTRAL SYSTEM did not converge for mass flow rate
   **   ~~~   ** Check values should be zero. Most Recent values listed first.
   **   ~~~   ** Demand-to-Supply interface mass flow rate check value iteration history trace: 7.116488E-002,7.116488E-002,7.116488E-002,7.116488E-002,7.116488E-002,7.116488E-002,7.116488E-002,7.116488E-002,7.116488E-002,7.116488E-002,
   **   ~~~   ** Supply-to-demand interface deck 1 mass flow rate check value iteration history trace: 7.116488E-002,7.116488E-002,7.116488E-002,7.116488E-002,7.116488E-002,7.116488E-002,7.116488E-002,7.116488E-002,7.116488E-002,7.116488E-002,
   **   ~~~   ** Air System Named = CENTRAL SYSTEM did not converge for energy
   **   ~~~   ** Check values should be zero. Most Recent values listed first.
   **   ~~~   ** Demand-to-Supply interface energy check value iteration history trace: 1409.996594,1409.996594,1409.996594,1409.996594,1409.996594,1409.996594,1409.996594,1409.996594,1409.996594,1409.996593,
   **   ~~~   ** Supply-to-demand interface deck 1 energy check value iteration history trace: 2446.708500,2446.708500,2446.708500,2446.708500,2446.708500,2446.708500,2446.708500,2446.708500,2446.708499,2446.708499,
   ** Warning ** Temperature out of range [-100. to 200.] (PsyPsatFnTemp)
   **   ~~~   **  Routine=PsyTwbFnTdbWPb, Environment=ANNUAL, at Simulation time=11/25 02:00 - 02:15
   **   ~~~   **  Input Temperature=-105.57
   ** Warning ** SimHVAC: Maximum iterations (20) exceeded for all HVAC loops, at ANNUAL, 12/02 08:42 - 08:43
   **   ~~~   ** The solution for one or more of the Air Loop HVAC systems did not appear to converge
   **   ~~~   ** Air System Named = CENTRAL SYSTEM did not converge for mass flow rate
   **   ~~~   ** Check values should be zero. Most Recent values listed first.
   **   ~~~   ** Demand-to-Supply interface mass flow rate check value iteration history trace: 7.247462E-002,7.247462E-002,7.247462E-002,7.247462E-002,7.247462E-002,7.247462E-002,7.247462E-002,7.247462E-002,7.247462E-002,7.247462E-002,
   **   ~~~   ** Supply-to-demand interface deck 1 mass flow rate check value iteration history trace: 7.247462E-002,7.247462E-002,7.247462E-002,7.247462E-002,7.247462E-002,7.247462E-002,7.247462E-002,7.247462E-002,7.247462E-002,7.247462E-002,
   **   ~~~   ** Air System Named = CENTRAL SYSTEM did not converge for energy
   **   ~~~   ** Check values should be zero. Most Recent values listed first.
   **   ~~~   ** Demand-to-Supply interface energy check value iteration history trace: 1430.235031,1430.235031,1430.235031,1430.235031,1430.235031,1430.235031,1430.235031,1430.235031,1430.235031,1430.235031,
   **   ~~~   ** Supply-to-demand interface deck 1 energy check value iteration history trace: 2537.879474,2537.879474,2537.879474,2537.879474,2537.879473,2537.879473,2537.879473,2537.879473,2537.879473,2537.879473,
   ** Warning ** SimHVAC: Maximum iterations (20) exceeded for all HVAC loops, at ANNUAL, 12/02 20:08 - 20:15
   **   ~~~   ** The solution for one or more of the Air Loop HVAC systems did not appear to converge
   **   ~~~   ** Air System Named = CENTRAL SYSTEM did not converge for mass flow rate
   **   ~~~   ** Check values should be zero. Most Recent values listed first.
   **   ~~~   ** Demand-to-Supply interface mass flow rate check value iteration history trace: 0.154672,0.154672,0.154672,0.154672,0.154672,0.154672,0.154672,0.154672,0.154672,0.154672,
   **   ~~~   ** Supply-to-demand interface deck 1 mass flow rate check value iteration history trace: 0.154672,0.154672,0.154672,0.154672,0.154672,0.154672,0.154672,0.154672,0.154672,0.154672,
   **   ~~~   ** Air System Named = CENTRAL SYSTEM did not converge for energy
   **   ~~~   ** Check values should be zero. Most Recent values listed first.
   **   ~~~   ** Demand-to-Supply interface energy check value iteration history trace: 3725.738148,3725.738149,3725.738149,3725.738149,3725.738149,3725.738149,3725.738149,3725.738150,3725.738150,3725.738150,
   **   ~~~   ** Supply-to-demand interface deck 1 energy check value iteration history trace: 1317.088414,1317.088414,1317.088414,1317.088414,1317.088414,1317.088414,1317.088414,1317.088415,1317.088415,1317.088415,
   ** Warning ** SimHVAC: Maximum iterations (20) exceeded for all HVAC loops, at ANNUAL, 12/05 08:36 - 08:39
   **   ~~~   ** The solution for one or more of the Air Loop HVAC systems did not appear to converge
   **   ~~~   ** Air System Named = CENTRAL SYSTEM did not converge for mass flow rate
   **   ~~~   ** Check values should be zero. Most Recent values listed first.
   **   ~~~   ** Demand-to-Supply interface mass flow rate check value iteration history trace: 6.850275E-002,6.850275E-002,6.850275E-002,6.850275E-002,6.850275E-002,6.850275E-002,6.850275E-002,6.850275E-002,6.850275E-002,6.850275E-002,
   **   ~~~   ** Supply-to-demand interface deck 1 mass flow rate check value iteration history trace: 6.850275E-002,6.850275E-002,6.850275E-002,6.850275E-002,6.850275E-002,6.850275E-002,6.850275E-002,6.850275E-002,6.850275E-002,6.850275E-002,
   **   ~~~   ** Air System Named = CENTRAL SYSTEM did not converge for energy
   **   ~~~   ** Check values should be zero. Most Recent values listed first.
   **   ~~~   ** Demand-to-Supply interface energy check value iteration history trace: 1349.789513,1349.789513,1349.789513,1349.789513,1349.789513,1349.789513,1349.789513,1349.789513,1349.789513,1349.789513,
   **   ~~~   ** Supply-to-demand interface deck 1 energy check value iteration history trace: 2412.957664,2412.957664,2412.957664,2412.957664,2412.957664,2412.957664,2412.957663,2412.957663,2412.957663,2412.957663,
   ************* Simulation Error Summary *************
   ** Warning ** The following Report Variables were requested but not generated -- check.rdd file
   **   ~~~   ** Either the IDF did not contain these elements, the variable name is misspelled,
   **   ~~~   ** or the requested variable is an advanced output which requires Output : Diagnostics, DisplayAdvancedReportVariables;
   ************* Key=*, VarName=BASEBOARD TOTAL HEATING ENERGY, Frequency=
   ************* Key=*, VarName=WATER HEATER NATURALGAS ENERGY, Frequency=
   ************* Key=*, VarName=COOLING COIL TOTAL HEATING ENERGY, Frequency=
   ************* There are 34 unused schedules in input.
   ************* There are 388 unused week schedules in input.
   ************* There are 396 unused day schedules in input.
   ************* Use Output:Diagnostics,DisplayUnusedSchedules; to see them.
   *************
   ************* ===== Recurring Error Summary =====
   ************* The following recurring error messages occurred.
   *************
   *************  ** Warning ** "TOTAL HOT WATER LOAD" - Target water temperature should be less than or equal to the hot water temperature error continues...
   *************  **   ~~~   **   This error occurred 147431 total times;
   *************  **   ~~~   **   during Warmup 0 times;
   *************  **   ~~~   **   during Sizing 0 times.
   *************  **   ~~~   **   Max=7.774276  Min=1.209663E-004
   *************
   *************  ** Warning ** Temperature out of range [-100. to 200.] (PsyPsatFnTemp)
   *************  **   ~~~   **   This error occurred 2 total times;
   *************  **   ~~~   **   during Warmup 0 times;
   *************  **   ~~~   **   during Sizing 0 times.
   *************  **   ~~~   **   Max=-101.999252 C  Min=-105.570145 C
   *************
   *************
   ************* ===== Final Error Summary =====
   ************* The following error categories occurred.  Consider correcting or noting.
   ************* Nominally Unused Constructions
   ************* ..The nominally unused constructions warning is provided to alert you to potential conditions that can cause
   ************* ..extra time during simulation. Each construction is calculated by the algorithm indicated in the HeatBalanceAlgorithm
   ************* ..object. You may remove the constructions indicated (when you use the DisplayExtraWarnings option).
   *************
   ************* EnergyPlus Warmup Error Summary. During Warmup: 0 Warning; 0 Severe Errors.
   ************* EnergyPlus Sizing Error Summary. During Sizing: 4 Warning; 0 Severe Errors.
   ************* EnergyPlus Completed Successfully-- 147463 Warning; 0 Severe Errors; Elapsed Time=00hr 06min 14.39sec
