Program Version,EnergyPlus, Version 22.2.0-c249759bad, YMD=2023.09.01 18:55,
   ************* Beginning Zone Sizing Calculations
   ** Warning ** ProcessScheduleInput: Schedule:Constant="ALWAYS ON DISCRETE", Schedule Type Limits Name="ONOFF" not found -- will not be validated
   ** Warning ** Foundation:Kiva="KIVA FOUNDATION", no Interior Horizontal Insulation Material Name defined
   **   ~~~   ** Interior Horizontal Insulation Depth will not be used.
   ** Warning ** CheckUsedConstructions: There are 15 nominally unused constructions in input.
   **   ~~~   ** Each Unused construction is shown.
   ************* Construction=INTERIOR FLOOR
   ************* Construction=INTERIOR WINDOW
   ************* Construction=EXTERIOR DOOR
   ************* Construction=INTERIOR DOOR
   ************* Construction=GABLE CONSTRUCTION
   ************* Construction=CRAWL_FLOOR
   ************* Construction=INSULATED PIPE
   ************* Construction=PLAIN PIPE
   ************* Construction=TDD PIPE
   ************* Construction=TDD DOME
   ************* Construction=TDD DIFFUSER
   ************* Construction=CRAWL WALL
   ************* Construction=CEILING-FLOOR-LAYER
   ************* Construction=SLAB CONSTRUCTION W FULL R10 INSULATION
   ************* Construction=SLAB CONSTRUCTION W FULL R5 INSULATION
   ** Warning ** GetDXCoils: Coil:Heating:DX:SingleSpeed="DX_HEATING_COIL" curve values
   **   ~~~   ** ... Defrost Energy Input Ratio Function of Temperature Curve Name = DEFROSTEIR output is not equal to 1.0 (+ or - 10%) at rated conditions.
   **   ~~~   ** ... Curve output at rated conditions = 0.152
   ************* Beginning System Sizing Calculations
   ************* Beginning Plant Sizing Calculations
   ** Warning ** SizeDXCoil Coil:Cooling:DX:SingleSpeed DX_COOLING_COIL
   **   ~~~   ** ...Gross Rated Total Cooling Capacity [W] will be limited by the maximum rated volume flow per rated total capacity ratio.
   **   ~~~   ** ...DX coil volume flow rate ( m3/s ) = 0.408368
   **   ~~~   ** ...Requested capacity ( W ) = 6441.040
   **   ~~~   ** ...Requested flow/capacity ratio ( m3/s/W ) = 6.340E-005
   **   ~~~   ** ...Maximum flow/capacity ratio ( m3/s/W ) = 6.041E-005
   **   ~~~   ** ...Adjusted capacity ( W ) = 6759.953
   ** Warning ** Coil:WaterHeating:AirToWaterHeatPump:Wrapped "HEAT PUMP WATER HEATER EVAPORATOR": Rated air volume flow rate per watt of rated total water heating capacity is out of range
   **   ~~~   ** Min Rated Vol Flow Per Watt=[4.027E-005], Rated Vol Flow Per Watt=[1.510E-004], Max Rated Vol Flow Per Watt=[8.056E-005]. See Input-Output Reference Manual for valid range.
   ************* SizeFan: : Potential issue with equipment sizing for Fan:OnOff HEAT PUMP WATER HEATER FAN
   **   ~~~   ** User-Specified Maximum Flow Rate [m3/s] = 0.22653
   **   ~~~   ** differs from Design Size Maximum Flow Rate [m3/s] = 7.55250E-002
   **   ~~~   ** This may, or may not, indicate mismatched component sizes.
   **   ~~~   ** Verify that the value entered is intended and is consistent with other components.
   ** Warning ** Water heater = WATER HEATER TANK:  Recovery Efficiency and Energy Factor could not be calculated during the test for standard ratings
   **   ~~~   ** Setpoint was never recovered and/or heater never turned on
   ** Warning ** Check input. Pump nominal power or motor efficiency is set to 0, for pump=MAINS PRESSURE
   ** Warning ** Output:Meter: invalid Key Name="ELECTRIC_RANGE:INTERIOREQUIPMENT:ELECTRICITY" - not found.
   ** Warning ** Output:Meter: invalid Key Name="ELECTRIC_DRYER:INTERIOREQUIPMENT:ELECTRICITY" - not found.
   ** Warning ** Output:Meter: invalid Key Name="HEATRECOVERY:ELECTRICITY" - not found.
   ** Warning ** Output:Meter: invalid Key Name="HEATING:NATURALGAS" - not found.
   ** Warning ** Output:Meter: invalid Key Name="WATERSYSTEMS:NATURALGAS" - not found.
   ** Warning ** Output:Meter: invalid Key Name="PROPANE:FACILITY" - not found.
   ** Warning ** Output:Meter: invalid Key Name="HEATING:PROPANE" - not found.
   ************* Testing Individual Branch Integrity
   ************* All Branches passed integrity testing
   ************* Testing Individual Supply Air Path Integrity
   ************* All Supply Air Paths passed integrity testing
   ************* Testing Individual Return Air Path Integrity
   ************* All Return Air Paths passed integrity testing
   ************* No node connection errors were found.
   ************* Beginning Simulation
   ** Warning ** AirflowNetwork::Solver::validate_distribution: Heat pump water heater is simulated along with an AirflowNetwork but is not included in the AirflowNetwork.
   ** Warning ** CalcEquipmentFlowRates: "TOTAL HOT WATER LOAD" - Target water temperature is greater than the hot water temperature by (2.29 C)
   **   ~~~   **  Environment=EXTREME_WINTER, at Simulation time=12/15 03:45 - 04:00
   **   ~~~   ** ...target water temperature     = 53.33 C
   **   ~~~   ** ...hot water temperature        = 51.04 C
   **   ~~~   ** ...Target water temperature should be less than or equal to the hot water temperature. Verify temperature setpoints and schedules.
   ** Warning ** SimHVAC: Maximum iterations (20) exceeded for all HVAC loops, at ANNUAL, 01/28 15:45 - 16:00
   **   ~~~   ** The solution for one or more of the Air Loop HVAC systems did not appear to converge
   **   ~~~   ** Air System Named = CENTRAL SYSTEM did not converge for mass flow rate
   **   ~~~   ** Check values should be zero. Most Recent values listed first.
   **   ~~~   ** Demand-to-Supply interface mass flow rate check value iteration history trace: 5.815462E-002,5.815462E-002,5.815462E-002,5.815462E-002,5.815462E-002,5.815462E-002,5.815462E-002,5.815462E-002,5.815462E-002,5.815462E-002,
   **   ~~~   ** Supply-to-demand interface deck 1 mass flow rate check value iteration history trace: 5.815462E-002,5.815462E-002,5.815462E-002,5.815462E-002,5.815462E-002,5.815462E-002,5.815462E-002,5.815462E-002,5.815462E-002,5.815462E-002,
   **   ~~~   ** Air System Named = CENTRAL SYSTEM did not converge for energy
   **   ~~~   ** Check values should be zero. Most Recent values listed first.
   **   ~~~   ** Demand-to-Supply interface energy check value iteration history trace: 1150.851714,1150.851714,1150.851714,1150.851713,1150.851713,1150.851713,1150.851713,1150.851713,1150.851713,1150.851713,
   **   ~~~   ** Supply-to-demand interface deck 1 energy check value iteration history trace: 1957.386828,1957.386828,1957.386828,1957.386827,1957.386827,1957.386827,1957.386827,1957.386827,1957.386827,1957.386827,
   ** Warning ** SimHVAC: Maximum iterations (20) exceeded for all HVAC loops, at ANNUAL, 03/04 15:00 - 15:15
   **   ~~~   ** The solution for one or more of the Air Loop HVAC systems did not appear to converge
   **   ~~~   ** Air System Named = CENTRAL SYSTEM did not converge for mass flow rate
   **   ~~~   ** Check values should be zero. Most Recent values listed first.
   **   ~~~   ** Demand-to-Supply interface mass flow rate check value iteration history trace: 5.298936E-002,5.298936E-002,5.298936E-002,5.298936E-002,5.298936E-002,5.298936E-002,5.298936E-002,5.298936E-002,5.298936E-002,5.298936E-002,
   **   ~~~   ** Supply-to-demand interface deck 1 mass flow rate check value iteration history trace: 5.298936E-002,5.298936E-002,5.298936E-002,5.298936E-002,5.298936E-002,5.298936E-002,5.298936E-002,5.298936E-002,5.298936E-002,5.298936E-002,
   **   ~~~   ** Air System Named = CENTRAL SYSTEM did not converge for energy
   **   ~~~   ** Check values should be zero. Most Recent values listed first.
   **   ~~~   ** Demand-to-Supply interface energy check value iteration history trace: 1050.076604,1050.076604,1050.076604,1050.076604,1050.076604,1050.076604,1050.076604,1050.076604,1050.076604,1050.076604,
   **   ~~~   ** Supply-to-demand interface deck 1 energy check value iteration history trace: 1873.137638,1873.137638,1873.137638,1873.137638,1873.137638,1873.137638,1873.137637,1873.137637,1873.137637,1873.137637,
   ** Warning ** SimHVAC: Maximum iterations (20) exceeded for all HVAC loops, at ANNUAL, 03/28 11:42 - 11:45
   **   ~~~   ** The solution for one or more of the Air Loop HVAC systems did not appear to converge
   **   ~~~   ** Air System Named = CENTRAL SYSTEM did not converge for mass flow rate
   **   ~~~   ** Check values should be zero. Most Recent values listed first.
   **   ~~~   ** Demand-to-Supply interface mass flow rate check value iteration history trace: 6.128951E-002,6.128951E-002,6.128951E-002,6.128951E-002,6.128951E-002,6.128951E-002,6.128951E-002,6.128951E-002,6.128951E-002,6.128951E-002,
   **   ~~~   ** Supply-to-demand interface deck 1 mass flow rate check value iteration history trace: 6.128951E-002,6.128951E-002,6.128951E-002,6.128951E-002,6.128951E-002,6.128951E-002,6.128951E-002,6.128951E-002,6.128951E-002,6.128951E-002,
   **   ~~~   ** Air System Named = CENTRAL SYSTEM did not converge for energy
   **   ~~~   ** Check values should be zero. Most Recent values listed first.
   **   ~~~   ** Demand-to-Supply interface energy check value iteration history trace: 1215.283012,1215.283012,1215.283012,1215.283012,1215.283012,1215.283012,1215.283012,1215.283012,1215.283012,1215.283012,
   **   ~~~   ** Supply-to-demand interface deck 1 energy check value iteration history trace: 2038.709619,2038.709619,2038.709619,2038.709618,2038.709618,2038.709618,2038.709618,2038.709618,2038.709618,2038.709618,
   ** Warning ** SimHVAC: Maximum iterations (20) exceeded for all HVAC loops, at ANNUAL, 04/05 09:00 - 09:15
   **   ~~~   ** The solution for one or more of the Air Loop HVAC systems did not appear to converge
   **   ~~~   ** Air System Named = CENTRAL SYSTEM did not converge for mass flow rate
   **   ~~~   ** Check values should be zero. Most Recent values listed first.
   **   ~~~   ** Demand-to-Supply interface mass flow rate check value iteration history trace: 6.189472E-002,6.189472E-002,6.189472E-002,6.189472E-002,6.189472E-002,6.189472E-002,6.189472E-002,6.189472E-002,6.189472E-002,6.189472E-002,
   **   ~~~   ** Supply-to-demand interface deck 1 mass flow rate check value iteration history trace: 6.189472E-002,6.189472E-002,6.189472E-002,6.189472E-002,6.189472E-002,6.189472E-002,6.189472E-002,6.189472E-002,6.189472E-002,6.189472E-002,
   **   ~~~   ** Air System Named = CENTRAL SYSTEM did not converge for energy
   **   ~~~   ** Check values should be zero. Most Recent values listed first.
   **   ~~~   ** Demand-to-Supply interface energy check value iteration history trace: 1226.303457,1226.303457,1226.303457,1226.303457,1226.303457,1226.303457,1226.303457,1226.303457,1226.303457,1226.303457,
   **   ~~~   ** Supply-to-demand interface deck 1 energy check value iteration history trace: 2218.482480,2218.482480,2218.482480,2218.482480,2218.482480,2218.482480,2218.482480,2218.482480,2218.482479,2218.482479,
   ** Warning ** SimHVAC: Maximum iterations (20) exceeded for all HVAC loops, at ANNUAL, 04/10 09:30 - 09:38
   **   ~~~   ** The solution for one or more of the Air Loop HVAC systems did not appear to converge
   **   ~~~   ** Air System Named = CENTRAL SYSTEM did not converge for mass flow rate
   **   ~~~   ** Check values should be zero. Most Recent values listed first.
   **   ~~~   ** Demand-to-Supply interface mass flow rate check value iteration history trace: 3.904903E-002,3.904903E-002,3.904903E-002,3.904903E-002,3.904903E-002,3.904903E-002,3.904903E-002,3.904903E-002,3.904903E-002,3.904903E-002,
   **   ~~~   ** Supply-to-demand interface deck 1 mass flow rate check value iteration history trace: 3.904903E-002,3.904903E-002,3.904903E-002,3.904903E-002,3.904903E-002,3.904903E-002,3.904903E-002,3.904903E-002,3.904903E-002,3.904903E-002,
   **   ~~~   ** Air System Named = CENTRAL SYSTEM did not converge for energy
   **   ~~~   ** Check values should be zero. Most Recent values listed first.
   **   ~~~   ** Demand-to-Supply interface energy check value iteration history trace: 773.781113,773.781113,773.781113,773.781112,773.781112,773.781112,773.781112,773.781112,773.781112,773.781112,
   **   ~~~   ** Supply-to-demand interface deck 1 energy check value iteration history trace: 1361.034310,1361.034310,1361.034310,1361.034310,1361.034310,1361.034310,1361.034310,1361.034310,1361.034310,1361.034309,
   ** Warning ** SimHVAC: Maximum iterations (20) exceeded for all HVAC loops, at ANNUAL, 04/22 11:30 - 11:45
   **   ~~~   ** The solution for one or more of the Air Loop HVAC systems did not appear to converge
   **   ~~~   ** Air System Named = CENTRAL SYSTEM did not converge for mass flow rate
   **   ~~~   ** Check values should be zero. Most Recent values listed first.
   **   ~~~   ** Demand-to-Supply interface mass flow rate check value iteration history trace: 3.606201E-002,3.606201E-002,3.606201E-002,3.606201E-002,3.606201E-002,3.606201E-002,3.606201E-002,3.606201E-002,3.606201E-002,3.606201E-002,
   **   ~~~   ** Supply-to-demand interface deck 1 mass flow rate check value iteration history trace: 3.606201E-002,3.606201E-002,3.606201E-002,3.606201E-002,3.606201E-002,3.606201E-002,3.606201E-002,3.606201E-002,3.606201E-002,3.606201E-002,
   **   ~~~   ** Air System Named = CENTRAL SYSTEM did not converge for energy
   **   ~~~   ** Check values should be zero. Most Recent values listed first.
   **   ~~~   ** Demand-to-Supply interface energy check value iteration history trace: 713.827834,713.827834,713.827834,713.827834,713.827834,713.827834,713.827833,713.827833,713.827833,713.827833,
   **   ~~~   ** Supply-to-demand interface deck 1 energy check value iteration history trace: 1221.948496,1221.948496,1221.948496,1221.948495,1221.948495,1221.948495,1221.948495,1221.948494,1221.948494,1221.948494,
   ** Warning ** SimHVAC: Maximum iterations (20) exceeded for all HVAC loops, at ANNUAL, 04/26 08:18 - 08:21
   **   ~~~   ** The solution for one or more of the Air Loop HVAC systems did not appear to converge
   **   ~~~   ** Air System Named = CENTRAL SYSTEM did not converge for mass flow rate
   **   ~~~   ** Check values should be zero. Most Recent values listed first.
   **   ~~~   ** Demand-to-Supply interface mass flow rate check value iteration history trace: 7.402828E-002,7.402828E-002,7.402828E-002,7.402828E-002,7.402828E-002,7.402828E-002,7.402828E-002,7.402828E-002,7.402828E-002,7.402828E-002,
   **   ~~~   ** Supply-to-demand interface deck 1 mass flow rate check value iteration history trace: 7.402828E-002,7.402828E-002,7.402828E-002,7.402828E-002,7.402828E-002,7.402828E-002,7.402828E-002,7.402828E-002,7.402828E-002,7.402828E-002,
   **   ~~~   ** Air System Named = CENTRAL SYSTEM did not converge for energy
   **   ~~~   ** Check values should be zero. Most Recent values listed first.
   **   ~~~   ** Demand-to-Supply interface energy check value iteration history trace: 1467.023777,1467.023777,1467.023777,1467.023777,1467.023776,1467.023776,1467.023776,1467.023776,1467.023776,1467.023776,
   **   ~~~   ** Supply-to-demand interface deck 1 energy check value iteration history trace: 2555.379286,2555.379286,2555.379286,2555.379286,2555.379286,2555.379285,2555.379285,2555.379285,2555.379285,2555.379285,
   ** Warning ** SimHVAC: Maximum iterations (20) exceeded for all HVAC loops, at ANNUAL, 04/26 08:30 - 08:34
   **   ~~~   ** The solution for one or more of the Air Loop HVAC systems did not appear to converge
   **   ~~~   ** Air System Named = CENTRAL SYSTEM did not converge for mass flow rate
   **   ~~~   ** Check values should be zero. Most Recent values listed first.
   **   ~~~   ** Demand-to-Supply interface mass flow rate check value iteration history trace: 7.180894E-002,7.180894E-002,7.180894E-002,7.180894E-002,7.180894E-002,7.180894E-002,7.180894E-002,7.180894E-002,7.180894E-002,7.180894E-002,
   **   ~~~   ** Supply-to-demand interface deck 1 mass flow rate check value iteration history trace: 7.180894E-002,7.180894E-002,7.180894E-002,7.180894E-002,7.180894E-002,7.180894E-002,7.180894E-002,7.180894E-002,7.180894E-002,7.180894E-002,
   **   ~~~   ** Air System Named = CENTRAL SYSTEM did not converge for energy
   **   ~~~   ** Check values should be zero. Most Recent values listed first.
   **   ~~~   ** Demand-to-Supply interface energy check value iteration history trace: 1419.431666,1419.431666,1419.431666,1419.431666,1419.431666,1419.431666,1419.431666,1419.431665,1419.431665,1419.431665,
   **   ~~~   ** Supply-to-demand interface deck 1 energy check value iteration history trace: 2486.132276,2486.132276,2486.132276,2486.132276,2486.132275,2486.132275,2486.132275,2486.132275,2486.132275,2486.132275,
   ** Warning ** SimHVAC: Maximum iterations (20) exceeded for all HVAC loops, at ANNUAL, 05/17 09:45 - 10:00
   **   ~~~   ** The solution for one or more of the Air Loop HVAC systems did not appear to converge
   **   ~~~   ** Air System Named = CENTRAL SYSTEM did not converge for mass flow rate
   **   ~~~   ** Check values should be zero. Most Recent values listed first.
   **   ~~~   ** Demand-to-Supply interface mass flow rate check value iteration history trace: 2.366506E-002,2.366506E-002,2.366506E-002,2.366506E-002,2.366506E-002,2.366506E-002,2.366506E-002,2.366506E-002,2.366506E-002,2.366506E-002,
   **   ~~~   ** Supply-to-demand interface deck 1 mass flow rate check value iteration history trace: 2.366506E-002,2.366506E-002,2.366506E-002,2.366506E-002,2.366506E-002,2.366506E-002,2.366506E-002,2.366506E-002,2.366506E-002,2.366506E-002,
   **   ~~~   ** Air System Named = CENTRAL SYSTEM did not converge for energy
   **   ~~~   ** Check values should be zero. Most Recent values listed first.
   **   ~~~   ** Demand-to-Supply interface energy check value iteration history trace: 465.444883,465.444883,465.444883,465.444883,465.444883,465.444883,465.444883,465.444883,465.444883,465.444883,
   **   ~~~   ** Supply-to-demand interface deck 1 energy check value iteration history trace: 827.206546,827.206546,827.206546,827.206546,827.206546,827.206546,827.206546,827.206546,827.206546,827.206546,
   ** Warning ** SimHVAC: Maximum iterations (20) exceeded for all HVAC loops, at ANNUAL, 10/18 13:30 - 13:45
   **   ~~~   ** The solution for one or more of the Air Loop HVAC systems did not appear to converge
   **   ~~~   ** Air System Named = CENTRAL SYSTEM did not converge for mass flow rate
   **   ~~~   ** Check values should be zero. Most Recent values listed first.
   **   ~~~   ** Demand-to-Supply interface mass flow rate check value iteration history trace: 8.106012E-002,8.106012E-002,8.106012E-002,8.106012E-002,8.106012E-002,8.106012E-002,8.106012E-002,8.106012E-002,8.106012E-002,8.106012E-002,
   **   ~~~   ** Supply-to-demand interface deck 1 mass flow rate check value iteration history trace: 8.106012E-002,8.106012E-002,8.106012E-002,8.106012E-002,8.106012E-002,8.106012E-002,8.106012E-002,8.106012E-002,8.106012E-002,8.106012E-002,
   **   ~~~   ** Air System Named = CENTRAL SYSTEM did not converge for energy
   **   ~~~   ** Check values should be zero. Most Recent values listed first.
   **   ~~~   ** Demand-to-Supply interface energy check value iteration history trace: 1901.008415,1901.008415,1901.008415,1901.008415,1901.008415,1901.008415,1901.008416,1901.008416,1901.008416,1901.008416,
   **   ~~~   ** Supply-to-demand interface deck 1 energy check value iteration history trace: 847.883228,847.883228,847.883228,847.883228,847.883228,847.883228,847.883228,847.883228,847.883228,847.883228,
   ** Warning ** SimHVAC: Maximum iterations (20) exceeded for all HVAC loops, at ANNUAL, 10/27 09:15 - 09:30
   **   ~~~   ** The solution for one or more of the Air Loop HVAC systems did not appear to converge
   **   ~~~   ** Air System Named = CENTRAL SYSTEM did not converge for mass flow rate
   **   ~~~   ** Check values should be zero. Most Recent values listed first.
   **   ~~~   ** Demand-to-Supply interface mass flow rate check value iteration history trace: 2.947660E-002,2.947660E-002,2.947660E-002,2.947660E-002,2.947660E-002,2.947660E-002,2.947660E-002,2.947660E-002,2.947660E-002,2.947660E-002,
   **   ~~~   ** Supply-to-demand interface deck 1 mass flow rate check value iteration history trace: 2.947660E-002,2.947660E-002,2.947660E-002,2.947660E-002,2.947660E-002,2.947660E-002,2.947660E-002,2.947660E-002,2.947660E-002,2.947660E-002,
   **   ~~~   ** Air System Named = CENTRAL SYSTEM did not converge for energy
   **   ~~~   ** Check values should be zero. Most Recent values listed first.
   **   ~~~   ** Demand-to-Supply interface energy check value iteration history trace: 584.134337,584.134337,584.134337,584.134337,584.134337,584.134337,584.134337,584.134337,584.134337,584.134337,
   **   ~~~   ** Supply-to-demand interface deck 1 energy check value iteration history trace: 997.635166,997.635166,997.635166,997.635166,997.635166,997.635166,997.635166,997.635166,997.635166,997.635166,
   ** Warning ** SimHVAC: Maximum iterations (20) exceeded for all HVAC loops, at ANNUAL, 11/03 09:08 - 09:11
   **   ~~~   ** The solution for one or more of the Air Loop HVAC systems did not appear to converge
   **   ~~~   ** Air System Named = CENTRAL SYSTEM did not converge for mass flow rate
   **   ~~~   ** Check values should be zero. Most Recent values listed first.
   **   ~~~   ** Demand-to-Supply interface mass flow rate check value iteration history trace: 6.411794E-002,6.411794E-002,6.411794E-002,6.411794E-002,6.411794E-002,6.411794E-002,6.411794E-002,6.411794E-002,6.411794E-002,6.411794E-002,
   **   ~~~   ** Supply-to-demand interface deck 1 mass flow rate check value iteration history trace: 6.411794E-002,6.411794E-002,6.411794E-002,6.411794E-002,6.411794E-002,6.411794E-002,6.411794E-002,6.411794E-002,6.411794E-002,6.411794E-002,
   **   ~~~   ** Air System Named = CENTRAL SYSTEM did not converge for energy
   **   ~~~   ** Check values should be zero. Most Recent values listed first.
   **   ~~~   ** Demand-to-Supply interface energy check value iteration history trace: 1270.594146,1270.594146,1270.594146,1270.594146,1270.594146,1270.594146,1270.594146,1270.594146,1270.594146,1270.594146,
   **   ~~~   ** Supply-to-demand interface deck 1 energy check value iteration history trace: 2193.578350,2193.578350,2193.578350,2193.578350,2193.578350,2193.578349,2193.578349,2193.578349,2193.578349,2193.578349,
   ** Warning ** SimHVAC: Maximum iterations (20) exceeded for all HVAC loops, at ANNUAL, 11/28 11:45 - 12:00
   **   ~~~   ** The solution for one or more of the Air Loop HVAC systems did not appear to converge
   **   ~~~   ** Air System Named = CENTRAL SYSTEM did not converge for mass flow rate
   **   ~~~   ** Check values should be zero. Most Recent values listed first.
   **   ~~~   ** Demand-to-Supply interface mass flow rate check value iteration history trace: 5.742186E-002,5.742186E-002,5.742186E-002,5.742186E-002,5.742186E-002,5.742186E-002,5.742186E-002,5.742186E-002,5.742186E-002,5.742186E-002,
   **   ~~~   ** Supply-to-demand interface deck 1 mass flow rate check value iteration history trace: 5.742186E-002,5.742186E-002,5.742186E-002,5.742186E-002,5.742186E-002,5.742186E-002,5.742186E-002,5.742186E-002,5.742186E-002,5.742186E-002,
   **   ~~~   ** Air System Named = CENTRAL SYSTEM did not converge for energy
   **   ~~~   ** Check values should be zero. Most Recent values listed first.
   **   ~~~   ** Demand-to-Supply interface energy check value iteration history trace: 1137.908598,1137.908598,1137.908598,1137.908598,1137.908598,1137.908597,1137.908597,1137.908597,1137.908597,1137.908597,
   **   ~~~   ** Supply-to-demand interface deck 1 energy check value iteration history trace: 2012.503906,2012.503906,2012.503906,2012.503905,2012.503905,2012.503905,2012.503904,2012.503904,2012.503904,2012.503904,
   **   ~~~   ** Node named ZONE INLET NODE shows oscillating temperatures across iterations with a repeated value of 34.878750
   **   ~~~   ** Node named ZONE INLET NODE temperature [C] iteration history trace (most recent first): 34.878750,34.878750,34.878750,34.878750,34.878750,34.878749,34.878749,34.878749,34.878749,34.878748,
   ************* Simulation Error Summary *************
   ** Warning ** The following Report Variables were requested but not generated -- check.rdd file
   **   ~~~   ** Either the IDF did not contain these elements, the variable name is misspelled,
   **   ~~~   ** or the requested variable is an advanced output which requires Output : Diagnostics, DisplayAdvancedReportVariables;
   ************* Key=*, VarName=BASEBOARD TOTAL HEATING ENERGY, Frequency=
   ************* Key=*, VarName=WATER HEATER NATURALGAS ENERGY, Frequency=
   ************* Key=*, VarName=COOLING COIL TOTAL HEATING ENERGY, Frequency=
   ************* There are 34 unused schedules in input.
   ************* There are 388 unused week schedules in input.
   ************* There are 396 unused day schedules in input.
   ************* Use Output:Diagnostics,DisplayUnusedSchedules; to see them.
   *************
   ************* ===== Recurring Error Summary =====
   ************* The following recurring error messages occurred.
   *************
   *************  ** Warning ** "TOTAL HOT WATER LOAD" - Target water temperature should be less than or equal to the hot water temperature error continues...
   *************  **   ~~~   **   This error occurred 52415 total times;
   *************  **   ~~~   **   during Warmup 0 times;
   *************  **   ~~~   **   during Sizing 0 times.
   *************  **   ~~~   **   Max=6.672556  Min=6.704004E-004
   *************
   *************
   ************* ===== Final Error Summary =====
   ************* The following error categories occurred.  Consider correcting or noting.
   ************* Nominally Unused Constructions
   ************* ..The nominally unused constructions warning is provided to alert you to potential conditions that can cause
   ************* ..extra time during simulation. Each construction is calculated by the algorithm indicated in the HeatBalanceAlgorithm
   ************* ..object. You may remove the constructions indicated (when you use the DisplayExtraWarnings option).
   *************
   ************* EnergyPlus Warmup Error Summary. During Warmup: 1 Warning; 0 Severe Errors.
   ************* EnergyPlus Sizing Error Summary. During Sizing: 4 Warning; 0 Severe Errors.
   ************* EnergyPlus Completed Successfully-- 52446 Warning; 0 Severe Errors; Elapsed Time=00hr 01min 27.69sec
