Program Version,EnergyPlus, Version 22.2.0-c249759bad, YMD=2023.09.01 20:04,
   ************* Beginning Zone Sizing Calculations
   ** Warning ** ProcessScheduleInput: Schedule:Constant="ALWAYS ON DISCRETE", Schedule Type Limits Name="ONOFF" not found -- will not be validated
   ** Warning ** Foundation:Kiva="KIVA FOUNDATION", no Interior Horizontal Insulation Material Name defined
   **   ~~~   ** Interior Horizontal Insulation Depth will not be used.
   ** Warning ** CheckUsedConstructions: There are 15 nominally unused constructions in input.
   **   ~~~   ** Each Unused construction is shown.
   ************* Construction=INTERIOR FLOOR
   ************* Construction=INTERIOR WINDOW
   ************* Construction=EXTERIOR DOOR
   ************* Construction=INTERIOR DOOR
   ************* Construction=GABLE CONSTRUCTION
   ************* Construction=CRAWL_FLOOR
   ************* Construction=INSULATED PIPE
   ************* Construction=PLAIN PIPE
   ************* Construction=TDD PIPE
   ************* Construction=TDD DOME
   ************* Construction=TDD DIFFUSER
   ************* Construction=CRAWL WALL
   ************* Construction=CEILING-FLOOR-LAYER
   ************* Construction=SLAB CONSTRUCTION W FULL R10 INSULATION
   ************* Construction=SLAB CONSTRUCTION W FULL R5 INSULATION
   ** Warning ** GetDXCoils: Coil:Heating:DX:SingleSpeed="DX_HEATING_COIL" curve values
   **   ~~~   ** ... Defrost Energy Input Ratio Function of Temperature Curve Name = DEFROSTEIR output is not equal to 1.0 (+ or - 10%) at rated conditions.
   **   ~~~   ** ... Curve output at rated conditions = 0.152
   ************* Beginning System Sizing Calculations
   ************* Beginning Plant Sizing Calculations
   ** Warning ** Coil:WaterHeating:AirToWaterHeatPump:Wrapped "HEAT PUMP WATER HEATER EVAPORATOR": Rated air volume flow rate per watt of rated total water heating capacity is out of range
   **   ~~~   ** Min Rated Vol Flow Per Watt=[4.027E-005], Rated Vol Flow Per Watt=[1.510E-004], Max Rated Vol Flow Per Watt=[8.056E-005]. See Input-Output Reference Manual for valid range.
   ************* SizeFan: : Potential issue with equipment sizing for Fan:OnOff HEAT PUMP WATER HEATER FAN
   **   ~~~   ** User-Specified Maximum Flow Rate [m3/s] = 0.22653
   **   ~~~   ** differs from Design Size Maximum Flow Rate [m3/s] = 7.55250E-002
   **   ~~~   ** This may, or may not, indicate mismatched component sizes.
   **   ~~~   ** Verify that the value entered is intended and is consistent with other components.
   ** Warning ** Water heater = WATER HEATER TANK:  Recovery Efficiency and Energy Factor could not be calculated during the test for standard ratings
   **   ~~~   ** Setpoint was never recovered and/or heater never turned on
   ** Warning ** Check input. Pump nominal power or motor efficiency is set to 0, for pump=MAINS PRESSURE
   ** Warning ** Output:Meter: invalid Key Name="ELECTRIC_RANGE:INTERIOREQUIPMENT:ELECTRICITY" - not found.
   ** Warning ** Output:Meter: invalid Key Name="ELECTRIC_DRYER:INTERIOREQUIPMENT:ELECTRICITY" - not found.
   ** Warning ** Output:Meter: invalid Key Name="HEATRECOVERY:ELECTRICITY" - not found.
   ** Warning ** Output:Meter: invalid Key Name="HEATING:NATURALGAS" - not found.
   ** Warning ** Output:Meter: invalid Key Name="WATERSYSTEMS:NATURALGAS" - not found.
   ** Warning ** Output:Meter: invalid Key Name="PROPANE:FACILITY" - not found.
   ** Warning ** Output:Meter: invalid Key Name="HEATING:PROPANE" - not found.
   ************* Testing Individual Branch Integrity
   ************* All Branches passed integrity testing
   ************* Testing Individual Supply Air Path Integrity
   ************* All Supply Air Paths passed integrity testing
   ************* Testing Individual Return Air Path Integrity
   ************* All Return Air Paths passed integrity testing
   ************* No node connection errors were found.
   ************* Beginning Simulation
   ** Warning ** AirflowNetwork::Solver::validate_distribution: Heat pump water heater is simulated along with an AirflowNetwork but is not included in the AirflowNetwork.
   ** Warning ** CalcEquipmentFlowRates: "TOTAL HOT WATER LOAD" - Target water temperature is greater than the hot water temperature by (4.80 C)
   **   ~~~   **  Environment=EXTREME_WINTER, at Simulation time=01/06 07:00 - 07:15
   **   ~~~   ** ...target water temperature     = 53.33 C
   **   ~~~   ** ...hot water temperature        = 48.53 C
   **   ~~~   ** ...Target water temperature should be less than or equal to the hot water temperature. Verify temperature setpoints and schedules.
   ** Warning ** SimHVAC: Maximum iterations (20) exceeded for all HVAC loops, at ANNUAL, 02/04 09:45 - 10:00
   **   ~~~   ** The solution for one or more of the Air Loop HVAC systems did not appear to converge
   **   ~~~   ** Air System Named = CENTRAL SYSTEM did not converge for mass flow rate
   **   ~~~   ** Check values should be zero. Most Recent values listed first.
   **   ~~~   ** Demand-to-Supply interface mass flow rate check value iteration history trace: 8.818145E-002,8.818145E-002,8.818145E-002,8.818145E-002,8.818145E-002,8.818145E-002,8.818145E-002,8.818145E-002,8.818145E-002,8.818145E-002,
   **   ~~~   ** Supply-to-demand interface deck 1 mass flow rate check value iteration history trace: 8.818145E-002,8.818145E-002,8.818145E-002,8.818145E-002,8.818145E-002,8.818145E-002,8.818145E-002,8.818145E-002,8.818145E-002,8.818145E-002,
   **   ~~~   ** Air System Named = CENTRAL SYSTEM did not converge for energy
   **   ~~~   ** Check values should be zero. Most Recent values listed first.
   **   ~~~   ** Demand-to-Supply interface energy check value iteration history trace: 1745.611805,1745.611805,1745.611804,1745.611804,1745.611804,1745.611804,1745.611804,1745.611804,1745.611804,1745.611804,
   **   ~~~   ** Supply-to-demand interface deck 1 energy check value iteration history trace: 2718.639509,2718.639509,2718.639509,2718.639509,2718.639509,2718.639509,2718.639508,2718.639508,2718.639508,2718.639508,
   ** Warning ** SimHVAC: Maximum iterations (20) exceeded for all HVAC loops, at ANNUAL, 02/24 03:15 - 03:30
   **   ~~~   ** The solution for one or more of the Air Loop HVAC systems did not appear to converge
   **   ~~~   ** Air System Named = CENTRAL SYSTEM did not converge for mass flow rate
   **   ~~~   ** Check values should be zero. Most Recent values listed first.
   **   ~~~   ** Demand-to-Supply interface mass flow rate check value iteration history trace: 4.105592E-002,4.105592E-002,4.105592E-002,4.105592E-002,4.105592E-002,4.105592E-002,4.105592E-002,4.105592E-002,4.105592E-002,4.105592E-002,
   **   ~~~   ** Supply-to-demand interface deck 1 mass flow rate check value iteration history trace: 4.105592E-002,4.105592E-002,4.105592E-002,4.105592E-002,4.105592E-002,4.105592E-002,4.105592E-002,4.105592E-002,4.105592E-002,4.105592E-002,
   **   ~~~   ** Air System Named = CENTRAL SYSTEM did not converge for energy
   **   ~~~   ** Check values should be zero. Most Recent values listed first.
   **   ~~~   ** Demand-to-Supply interface energy check value iteration history trace: 767.344386,767.344386,767.344386,767.344386,767.344386,767.344386,767.344386,767.344386,767.344386,767.344386,
   **   ~~~   ** Supply-to-demand interface deck 1 energy check value iteration history trace: 1330.559547,1330.559547,1330.559546,1330.559546,1330.559546,1330.559546,1330.559546,1330.559546,1330.559546,1330.559546,
   ** Warning ** SimHVAC: Maximum iterations (20) exceeded for all HVAC loops, at ANNUAL, 03/25 06:15 - 06:30
   **   ~~~   ** The solution for one or more of the Air Loop HVAC systems did not appear to converge
   **   ~~~   ** Air System Named = CENTRAL SYSTEM did not converge for mass flow rate
   **   ~~~   ** Check values should be zero. Most Recent values listed first.
   **   ~~~   ** Demand-to-Supply interface mass flow rate check value iteration history trace: 0.135287,0.135287,0.135287,0.135287,0.135287,0.135287,0.135287,0.135287,0.135287,0.135287,
   **   ~~~   ** Supply-to-demand interface deck 1 mass flow rate check value iteration history trace: 0.135287,0.135287,0.135287,0.135287,0.135287,0.135287,0.135287,0.135287,0.135287,0.135287,
   **   ~~~   ** Air System Named = CENTRAL SYSTEM did not converge for energy
   **   ~~~   ** Check values should be zero. Most Recent values listed first.
   **   ~~~   ** Demand-to-Supply interface energy check value iteration history trace: 3238.068848,3238.068849,3238.068850,3238.068851,3238.068851,3238.068852,3238.068853,3238.068853,3238.068854,3238.068855,
   **   ~~~   ** Supply-to-demand interface deck 1 energy check value iteration history trace: 1838.845080,1838.845081,1838.845081,1838.845081,1838.845082,1838.845082,1838.845083,1838.845083,1838.845083,1838.845084,
   ** Warning ** SimHVAC: Maximum iterations (20) exceeded for all HVAC loops, at ANNUAL, 03/27 07:30 - 07:45
   **   ~~~   ** The solution for one or more of the Air Loop HVAC systems did not appear to converge
   **   ~~~   ** Air System Named = CENTRAL SYSTEM did not converge for mass flow rate
   **   ~~~   ** Check values should be zero. Most Recent values listed first.
   **   ~~~   ** Demand-to-Supply interface mass flow rate check value iteration history trace: 0.155777,0.155777,0.155777,0.155777,0.155777,0.155777,0.155777,0.155777,0.155777,0.155777,
   **   ~~~   ** Supply-to-demand interface deck 1 mass flow rate check value iteration history trace: 0.155777,0.155777,0.155777,0.155777,0.155777,0.155777,0.155777,0.155777,0.155777,0.155777,
   **   ~~~   ** Air System Named = CENTRAL SYSTEM did not converge for energy
   **   ~~~   ** Check values should be zero. Most Recent values listed first.
   **   ~~~   ** Demand-to-Supply interface energy check value iteration history trace: 3759.602215,3759.602215,3759.602215,3759.602216,3759.602216,3759.602216,3759.602217,3759.602217,3759.602217,3759.602218,
   **   ~~~   ** Supply-to-demand interface deck 1 energy check value iteration history trace: 2207.929556,2207.929556,2207.929556,2207.929556,2207.929556,2207.929557,2207.929557,2207.929557,2207.929557,2207.929557,
   ** Warning ** SimHVAC: Maximum iterations (20) exceeded for all HVAC loops, at ANNUAL, 03/27 22:38 - 22:45
   **   ~~~   ** The solution for one or more of the Air Loop HVAC systems did not appear to converge
   **   ~~~   ** Air System Named = CENTRAL SYSTEM did not converge for mass flow rate
   **   ~~~   ** Check values should be zero. Most Recent values listed first.
   **   ~~~   ** Demand-to-Supply interface mass flow rate check value iteration history trace: 0.127802,0.127802,0.127802,0.127802,0.127802,0.127802,0.127802,0.127802,0.127802,0.127802,
   **   ~~~   ** Supply-to-demand interface deck 1 mass flow rate check value iteration history trace: 0.127802,0.127802,0.127802,0.127802,0.127802,0.127802,0.127802,0.127802,0.127802,0.127802,
   **   ~~~   ** Air System Named = CENTRAL SYSTEM did not converge for energy
   **   ~~~   ** Check values should be zero. Most Recent values listed first.
   **   ~~~   ** Demand-to-Supply interface energy check value iteration history trace: 3155.199337,3155.199338,3155.199339,3155.199340,3155.199340,3155.199341,3155.199342,3155.199343,3155.199344,3155.199345,
   **   ~~~   ** Supply-to-demand interface deck 1 energy check value iteration history trace: 1626.245960,1626.245961,1626.245961,1626.245961,1626.245962,1626.245962,1626.245963,1626.245963,1626.245964,1626.245964,
   ** Warning ** SimHVAC: Maximum iterations (20) exceeded for all HVAC loops, at ANNUAL, 04/09 22:45 - 23:00
   **   ~~~   ** The solution for one or more of the Air Loop HVAC systems did not appear to converge
   **   ~~~   ** Air System Named = CENTRAL SYSTEM did not converge for mass flow rate
   **   ~~~   ** Check values should be zero. Most Recent values listed first.
   **   ~~~   ** Demand-to-Supply interface mass flow rate check value iteration history trace: 0.114072,0.114072,0.114072,0.114072,0.114072,0.114072,0.114072,0.114072,0.114072,0.114072,
   **   ~~~   ** Supply-to-demand interface deck 1 mass flow rate check value iteration history trace: 0.114072,0.114072,0.114072,0.114072,0.114072,0.114072,0.114072,0.114072,0.114072,0.114072,
   **   ~~~   ** Air System Named = CENTRAL SYSTEM did not converge for energy
   **   ~~~   ** Check values should be zero. Most Recent values listed first.
   **   ~~~   ** Demand-to-Supply interface energy check value iteration history trace: 2883.767195,2883.767195,2883.767195,2883.767196,2883.767196,2883.767196,2883.767196,2883.767196,2883.767197,2883.767197,
   **   ~~~   ** Supply-to-demand interface deck 1 energy check value iteration history trace: 1524.900003,1524.900003,1524.900003,1524.900003,1524.900003,1524.900003,1524.900003,1524.900004,1524.900004,1524.900004,
   ** Warning ** SimHVAC: Maximum iterations (20) exceeded for all HVAC loops, at ANNUAL, 11/30 16:23 - 16:30
   **   ~~~   ** The solution for one or more of the Air Loop HVAC systems did not appear to converge
   **   ~~~   ** Air System Named = CENTRAL SYSTEM did not converge for mass flow rate
   **   ~~~   ** Check values should be zero. Most Recent values listed first.
   **   ~~~   ** Demand-to-Supply interface mass flow rate check value iteration history trace: 0.248205,0.248205,0.248205,0.248205,0.248205,0.248205,0.248205,0.248205,0.248205,0.248205,
   **   ~~~   ** Supply-to-demand interface deck 1 mass flow rate check value iteration history trace: 0.248205,0.248205,0.248205,0.248205,0.248205,0.248205,0.248205,0.248205,0.248205,0.248205,
   **   ~~~   ** Air System Named = CENTRAL SYSTEM did not converge for energy
   **   ~~~   ** Check values should be zero. Most Recent values listed first.
   **   ~~~   ** Demand-to-Supply interface energy check value iteration history trace: 5987.449585,5987.449585,5987.449586,5987.449586,5987.449587,5987.449587,5987.449588,5987.449588,5987.449589,5987.449589,
   **   ~~~   ** Supply-to-demand interface deck 1 energy check value iteration history trace: 3423.711052,3423.711052,3423.711053,3423.711053,3423.711053,3423.711054,3423.711054,3423.711054,3423.711054,3423.711055,
   ** Warning ** SimHVAC: Maximum iterations (20) exceeded for all HVAC loops, at ANNUAL, 12/01 18:49 - 18:52
   **   ~~~   ** The solution for one or more of the Air Loop HVAC systems did not appear to converge
   **   ~~~   ** Air System Named = CENTRAL SYSTEM did not converge for mass flow rate
   **   ~~~   ** Check values should be zero. Most Recent values listed first.
   **   ~~~   ** Demand-to-Supply interface mass flow rate check value iteration history trace: 2.447348E-002,2.447348E-002,2.447348E-002,2.447348E-002,2.447348E-002,2.447348E-002,2.447348E-002,2.447348E-002,2.447348E-002,2.447348E-002,
   **   ~~~   ** Supply-to-demand interface deck 1 mass flow rate check value iteration history trace: 2.447348E-002,2.447348E-002,2.447348E-002,2.447348E-002,2.447348E-002,2.447348E-002,2.447348E-002,2.447348E-002,2.447348E-002,2.447348E-002,
   **   ~~~   ** Air System Named = CENTRAL SYSTEM did not converge for energy
   **   ~~~   ** Check values should be zero. Most Recent values listed first.
   **   ~~~   ** Demand-to-Supply interface energy check value iteration history trace: 574.478030,574.478030,574.478030,574.478031,574.478031,574.478031,574.478031,574.478031,574.478031,574.478031,
   **   ~~~   ** Supply-to-demand interface deck 1 energy check value iteration history trace: 229.847358,229.847358,229.847358,229.847358,229.847358,229.847358,229.847358,229.847358,229.847358,229.847358,
   ** Warning ** SimHVAC: Maximum iterations (20) exceeded for all HVAC loops, at ANNUAL, 12/04 09:10 - 09:15
   **   ~~~   ** The solution for one or more of the Air Loop HVAC systems did not appear to converge
   **   ~~~   ** Air System Named = CENTRAL SYSTEM did not converge for mass flow rate
   **   ~~~   ** Check values should be zero. Most Recent values listed first.
   **   ~~~   ** Demand-to-Supply interface mass flow rate check value iteration history trace: 1.898763E-002,1.898763E-002,1.898763E-002,1.898763E-002,1.898763E-002,1.898763E-002,1.898763E-002,1.898763E-002,1.898763E-002,1.898763E-002,
   **   ~~~   ** Supply-to-demand interface deck 1 mass flow rate check value iteration history trace: 1.898763E-002,1.898763E-002,1.898763E-002,1.898763E-002,1.898763E-002,1.898763E-002,1.898763E-002,1.898763E-002,1.898763E-002,1.898763E-002,
   **   ~~~   ** Air System Named = CENTRAL SYSTEM did not converge for energy
   **   ~~~   ** Check values should be zero. Most Recent values listed first.
   **   ~~~   ** Demand-to-Supply interface energy check value iteration history trace: 445.219952,445.219952,445.219952,445.219952,445.219952,445.219952,445.219952,445.219952,445.219952,445.219952,
   **   ~~~   ** Supply-to-demand interface deck 1 energy check value iteration history trace: 254.728312,254.728312,254.728312,254.728312,254.728312,254.728312,254.728312,254.728312,254.728312,254.728312,
   ** Warning ** SimHVAC: Maximum iterations (20) exceeded for all HVAC loops, at ANNUAL, 12/05 07:00 - 07:15
   **   ~~~   ** The solution for one or more of the Air Loop HVAC systems did not appear to converge
   **   ~~~   ** Air System Named = CENTRAL SYSTEM did not converge for mass flow rate
   **   ~~~   ** Check values should be zero. Most Recent values listed first.
   **   ~~~   ** Demand-to-Supply interface mass flow rate check value iteration history trace: 0.123231,0.123231,0.123231,0.123231,0.123231,0.123231,0.123231,0.123231,0.123231,0.123231,
   **   ~~~   ** Supply-to-demand interface deck 1 mass flow rate check value iteration history trace: 0.123231,0.123231,0.123231,0.123231,0.123231,0.123231,0.123231,0.123231,0.123231,0.123231,
   **   ~~~   ** Air System Named = CENTRAL SYSTEM did not converge for energy
   **   ~~~   ** Check values should be zero. Most Recent values listed first.
   **   ~~~   ** Demand-to-Supply interface energy check value iteration history trace: 2942.891705,2942.891705,2942.891705,2942.891706,2942.891706,2942.891706,2942.891706,2942.891707,2942.891707,2942.891707,
   **   ~~~   ** Supply-to-demand interface deck 1 energy check value iteration history trace: 1785.867893,1785.867893,1785.867894,1785.867894,1785.867894,1785.867894,1785.867894,1785.867894,1785.867895,1785.867895,
   ** Warning ** SimHVAC: Maximum iterations (20) exceeded for all HVAC loops, at ANNUAL, 12/05 12:30 - 12:45
   **   ~~~   ** The solution for one or more of the Air Loop HVAC systems did not appear to converge
   **   ~~~   ** Air System Named = CENTRAL SYSTEM did not converge for mass flow rate
   **   ~~~   ** Check values should be zero. Most Recent values listed first.
   **   ~~~   ** Demand-to-Supply interface mass flow rate check value iteration history trace: 9.089371E-002,9.089371E-002,9.089371E-002,9.089371E-002,9.089371E-002,9.089371E-002,9.089371E-002,9.089371E-002,9.089371E-002,9.089371E-002,
   **   ~~~   ** Supply-to-demand interface deck 1 mass flow rate check value iteration history trace: 9.089371E-002,9.089371E-002,9.089371E-002,9.089371E-002,9.089371E-002,9.089371E-002,9.089371E-002,9.089371E-002,9.089371E-002,9.089371E-002,
   **   ~~~   ** Air System Named = CENTRAL SYSTEM did not converge for energy
   **   ~~~   ** Check values should be zero. Most Recent values listed first.
   **   ~~~   ** Demand-to-Supply interface energy check value iteration history trace: 2162.312484,2162.312484,2162.312484,2162.312484,2162.312484,2162.312484,2162.312485,2162.312485,2162.312485,2162.312485,
   **   ~~~   ** Supply-to-demand interface deck 1 energy check value iteration history trace: 1266.997549,1266.997549,1266.997549,1266.997549,1266.997549,1266.997549,1266.997550,1266.997550,1266.997550,1266.997550,
   ** Warning ** SimHVAC: Maximum iterations (20) exceeded for all HVAC loops, at ANNUAL, 12/07 20:00 - 20:15
   **   ~~~   ** The solution for one or more of the Air Loop HVAC systems did not appear to converge
   **   ~~~   ** Air System Named = CENTRAL SYSTEM did not converge for mass flow rate
   **   ~~~   ** Check values should be zero. Most Recent values listed first.
   **   ~~~   ** Demand-to-Supply interface mass flow rate check value iteration history trace: 9.989732E-002,9.989732E-002,9.989732E-002,9.989732E-002,9.989732E-002,9.989732E-002,9.989732E-002,9.989732E-002,9.989732E-002,9.989732E-002,
   **   ~~~   ** Supply-to-demand interface deck 1 mass flow rate check value iteration history trace: 9.989732E-002,9.989732E-002,9.989732E-002,9.989732E-002,9.989732E-002,9.989732E-002,9.989732E-002,9.989732E-002,9.989732E-002,9.989732E-002,
   **   ~~~   ** Air System Named = CENTRAL SYSTEM did not converge for energy
   **   ~~~   ** Check values should be zero. Most Recent values listed first.
   **   ~~~   ** Demand-to-Supply interface energy check value iteration history trace: 1949.037629,1949.037629,1949.037629,1949.037629,1949.037628,1949.037628,1949.037628,1949.037628,1949.037628,1949.037628,
   **   ~~~   ** Supply-to-demand interface deck 1 energy check value iteration history trace: 3029.839553,3029.839553,3029.839553,3029.839552,3029.839552,3029.839552,3029.839552,3029.839552,3029.839552,3029.839551,
   ************* Simulation Error Summary *************
   ** Warning ** The following Report Variables were requested but not generated -- check.rdd file
   **   ~~~   ** Either the IDF did not contain these elements, the variable name is misspelled,
   **   ~~~   ** or the requested variable is an advanced output which requires Output : Diagnostics, DisplayAdvancedReportVariables;
   ************* Key=*, VarName=BASEBOARD TOTAL HEATING ENERGY, Frequency=
   ************* Key=*, VarName=WATER HEATER NATURALGAS ENERGY, Frequency=
   ************* Key=*, VarName=COOLING COIL TOTAL HEATING ENERGY, Frequency=
   ************* There are 34 unused schedules in input.
   ************* There are 388 unused week schedules in input.
   ************* There are 396 unused day schedules in input.
   ************* Use Output:Diagnostics,DisplayUnusedSchedules; to see them.
   *************
   ************* ===== Recurring Error Summary =====
   ************* The following recurring error messages occurred.
   *************
   *************  ** Warning ** "TOTAL HOT WATER LOAD" - Target water temperature should be less than or equal to the hot water temperature error continues...
   *************  **   ~~~   **   This error occurred 185433 total times;
   *************  **   ~~~   **   during Warmup 0 times;
   *************  **   ~~~   **   during Sizing 0 times.
   *************  **   ~~~   **   Max=11.682445  Min=1.241660E-003
   *************
   *************
   ************* ===== Final Error Summary =====
   ************* The following error categories occurred.  Consider correcting or noting.
   ************* Nominally Unused Constructions
   ************* ..The nominally unused constructions warning is provided to alert you to potential conditions that can cause
   ************* ..extra time during simulation. Each construction is calculated by the algorithm indicated in the HeatBalanceAlgorithm
   ************* ..object. You may remove the constructions indicated (when you use the DisplayExtraWarnings option).
   *************
   ************* EnergyPlus Warmup Error Summary. During Warmup: 1 Warning; 0 Severe Errors.
   ************* EnergyPlus Sizing Error Summary. During Sizing: 4 Warning; 0 Severe Errors.
   ************* EnergyPlus Completed Successfully-- 185462 Warning; 0 Severe Errors; Elapsed Time=00hr 01min 41.69sec
