Program Version,EnergyPlus, Version 22.2.0-c249759bad, YMD=2023.09.01 18:58,
   ************* Beginning Zone Sizing Calculations
   ** Warning ** ProcessScheduleInput: Schedule:Constant="ALWAYS ON DISCRETE", Schedule Type Limits Name="ONOFF" not found -- will not be validated
   ** Warning ** Foundation:Kiva="KIVA FOUNDATION", no Interior Horizontal Insulation Material Name defined
   **   ~~~   ** Interior Horizontal Insulation Depth will not be used.
   ** Warning ** CheckUsedConstructions: There are 15 nominally unused constructions in input.
   **   ~~~   ** Each Unused construction is shown.
   ************* Construction=INTERIOR FLOOR
   ************* Construction=INTERIOR WINDOW
   ************* Construction=EXTERIOR DOOR
   ************* Construction=INTERIOR DOOR
   ************* Construction=GABLE CONSTRUCTION
   ************* Construction=CRAWL_FLOOR
   ************* Construction=INSULATED PIPE
   ************* Construction=PLAIN PIPE
   ************* Construction=TDD PIPE
   ************* Construction=TDD DOME
   ************* Construction=TDD DIFFUSER
   ************* Construction=CRAWL WALL
   ************* Construction=CEILING-FLOOR-LAYER
   ************* Construction=SLAB CONSTRUCTION W FULL R10 INSULATION
   ************* Construction=SLAB CONSTRUCTION W FULL R5 INSULATION
   ** Warning ** GetDXCoils: Coil:Heating:DX:SingleSpeed="DX_HEATING_COIL" curve values
   **   ~~~   ** ... Defrost Energy Input Ratio Function of Temperature Curve Name = DEFROSTEIR output is not equal to 1.0 (+ or - 10%) at rated conditions.
   **   ~~~   ** ... Curve output at rated conditions = 0.152
   ************* Beginning System Sizing Calculations
   ************* Beginning Plant Sizing Calculations
   ** Warning ** Coil:WaterHeating:AirToWaterHeatPump:Wrapped "HEAT PUMP WATER HEATER EVAPORATOR": Rated air volume flow rate per watt of rated total water heating capacity is out of range
   **   ~~~   ** Min Rated Vol Flow Per Watt=[4.027E-005], Rated Vol Flow Per Watt=[1.510E-004], Max Rated Vol Flow Per Watt=[8.056E-005]. See Input-Output Reference Manual for valid range.
   ************* SizeFan: : Potential issue with equipment sizing for Fan:OnOff HEAT PUMP WATER HEATER FAN
   **   ~~~   ** User-Specified Maximum Flow Rate [m3/s] = 0.22653
   **   ~~~   ** differs from Design Size Maximum Flow Rate [m3/s] = 7.55250E-002
   **   ~~~   ** This may, or may not, indicate mismatched component sizes.
   **   ~~~   ** Verify that the value entered is intended and is consistent with other components.
   ** Warning ** Water heater = WATER HEATER TANK:  Recovery Efficiency and Energy Factor could not be calculated during the test for standard ratings
   **   ~~~   ** Setpoint was never recovered and/or heater never turned on
   ** Warning ** Check input. Pump nominal power or motor efficiency is set to 0, for pump=MAINS PRESSURE
   ** Warning ** Output:Meter: invalid Key Name="ELECTRIC_RANGE:INTERIOREQUIPMENT:ELECTRICITY" - not found.
   ** Warning ** Output:Meter: invalid Key Name="ELECTRIC_DRYER:INTERIOREQUIPMENT:ELECTRICITY" - not found.
   ** Warning ** Output:Meter: invalid Key Name="HEATRECOVERY:ELECTRICITY" - not found.
   ** Warning ** Output:Meter: invalid Key Name="HEATING:NATURALGAS" - not found.
   ** Warning ** Output:Meter: invalid Key Name="WATERSYSTEMS:NATURALGAS" - not found.
   ** Warning ** Output:Meter: invalid Key Name="PROPANE:FACILITY" - not found.
   ** Warning ** Output:Meter: invalid Key Name="HEATING:PROPANE" - not found.
   ************* Testing Individual Branch Integrity
   ************* All Branches passed integrity testing
   ************* Testing Individual Supply Air Path Integrity
   ************* All Supply Air Paths passed integrity testing
   ************* Testing Individual Return Air Path Integrity
   ************* All Return Air Paths passed integrity testing
   ************* No node connection errors were found.
   ************* Beginning Simulation
   ** Warning ** AirflowNetwork::Solver::validate_distribution: Heat pump water heater is simulated along with an AirflowNetwork but is not included in the AirflowNetwork.
   ** Warning ** CalcEquipmentFlowRates: "TOTAL HOT WATER LOAD" - Target water temperature is greater than the hot water temperature by (1.75 C)
   **   ~~~   **  Environment=EXTREME_WINTER, at Simulation time=02/03 03:45 - 04:00
   **   ~~~   ** ...target water temperature     = 53.33 C
   **   ~~~   ** ...hot water temperature        = 51.59 C
   **   ~~~   ** ...Target water temperature should be less than or equal to the hot water temperature. Verify temperature setpoints and schedules.
   ** Warning ** SimHVAC: Maximum iterations (20) exceeded for all HVAC loops, at ANNUAL, 01/07 20:00 - 20:15
   **   ~~~   ** The solution for one or more of the Air Loop HVAC systems did not appear to converge
   **   ~~~   ** Air System Named = CENTRAL SYSTEM did not converge for mass flow rate
   **   ~~~   ** Check values should be zero. Most Recent values listed first.
   **   ~~~   ** Demand-to-Supply interface mass flow rate check value iteration history trace: 6.298557E-002,6.298557E-002,6.298557E-002,6.298557E-002,6.298557E-002,6.298557E-002,6.298557E-002,6.298557E-002,6.298557E-002,6.298557E-002,
   **   ~~~   ** Supply-to-demand interface deck 1 mass flow rate check value iteration history trace: 6.298557E-002,6.298557E-002,6.298557E-002,6.298557E-002,6.298557E-002,6.298557E-002,6.298557E-002,6.298557E-002,6.298557E-002,6.298557E-002,
   **   ~~~   ** Air System Named = CENTRAL SYSTEM did not converge for energy
   **   ~~~   ** Check values should be zero. Most Recent values listed first.
   **   ~~~   ** Demand-to-Supply interface energy check value iteration history trace: 1245.594973,1245.594973,1245.594973,1245.594973,1245.594973,1245.594973,1245.594973,1245.594972,1245.594972,1245.594972,
   **   ~~~   ** Supply-to-demand interface deck 1 energy check value iteration history trace: 1989.879153,1989.879153,1989.879153,1989.879153,1989.879153,1989.879152,1989.879152,1989.879152,1989.879152,1989.879152,
   ** Warning ** SimHVAC: Maximum iterations (20) exceeded for all HVAC loops, at ANNUAL, 01/15 19:30 - 19:45
   **   ~~~   ** The solution for one or more of the Air Loop HVAC systems did not appear to converge
   **   ~~~   ** Air System Named = CENTRAL SYSTEM did not converge for mass flow rate
   **   ~~~   ** Check values should be zero. Most Recent values listed first.
   **   ~~~   ** Demand-to-Supply interface mass flow rate check value iteration history trace: 5.791611E-002,5.791611E-002,5.791611E-002,5.791611E-002,5.791611E-002,5.791611E-002,5.791611E-002,5.791611E-002,5.791611E-002,5.791611E-002,
   **   ~~~   ** Supply-to-demand interface deck 1 mass flow rate check value iteration history trace: 5.791611E-002,5.791611E-002,5.791611E-002,5.791611E-002,5.791611E-002,5.791611E-002,5.791611E-002,5.791611E-002,5.791611E-002,5.791611E-002,
   **   ~~~   ** Air System Named = CENTRAL SYSTEM did not converge for energy
   **   ~~~   ** Check values should be zero. Most Recent values listed first.
   **   ~~~   ** Demand-to-Supply interface energy check value iteration history trace: 1148.309889,1148.309889,1148.309889,1148.309889,1148.309889,1148.309889,1148.309889,1148.309889,1148.309889,1148.309889,
   **   ~~~   ** Supply-to-demand interface deck 1 energy check value iteration history trace: 2081.050519,2081.050519,2081.050519,2081.050519,2081.050519,2081.050519,2081.050519,2081.050519,2081.050519,2081.050519,
   ** Warning ** SimHVAC: Maximum iterations (20) exceeded for all HVAC loops, at ANNUAL, 02/13 14:00 - 14:15
   **   ~~~   ** The solution for one or more of the Air Loop HVAC systems did not appear to converge
   **   ~~~   ** Air System Named = CENTRAL SYSTEM did not converge for mass flow rate
   **   ~~~   ** Check values should be zero. Most Recent values listed first.
   **   ~~~   ** Demand-to-Supply interface mass flow rate check value iteration history trace: 6.167477E-002,6.167477E-002,6.167477E-002,6.167477E-002,6.167477E-002,6.167477E-002,6.167477E-002,6.167477E-002,6.167477E-002,6.167477E-002,
   **   ~~~   ** Supply-to-demand interface deck 1 mass flow rate check value iteration history trace: 6.167477E-002,6.167477E-002,6.167477E-002,6.167477E-002,6.167477E-002,6.167477E-002,6.167477E-002,6.167477E-002,6.167477E-002,6.167477E-002,
   **   ~~~   ** Air System Named = CENTRAL SYSTEM did not converge for energy
   **   ~~~   ** Check values should be zero. Most Recent values listed first.
   **   ~~~   ** Demand-to-Supply interface energy check value iteration history trace: 1222.097395,1222.097395,1222.097395,1222.097395,1222.097395,1222.097395,1222.097395,1222.097395,1222.097395,1222.097395,
   **   ~~~   ** Supply-to-demand interface deck 1 energy check value iteration history trace: 1958.486662,1958.486662,1958.486662,1958.486662,1958.486662,1958.486662,1958.486662,1958.486661,1958.486661,1958.486661,
   ** Warning ** SimHVAC: Maximum iterations (20) exceeded for all HVAC loops, at ANNUAL, 02/18 15:15 - 15:30
   **   ~~~   ** The solution for one or more of the Air Loop HVAC systems did not appear to converge
   **   ~~~   ** Air System Named = CENTRAL SYSTEM did not converge for mass flow rate
   **   ~~~   ** Check values should be zero. Most Recent values listed first.
   **   ~~~   ** Demand-to-Supply interface mass flow rate check value iteration history trace: 6.655635E-002,6.655635E-002,6.655635E-002,6.655635E-002,6.655635E-002,6.655635E-002,6.655635E-002,6.655635E-002,6.655635E-002,6.655635E-002,
   **   ~~~   ** Supply-to-demand interface deck 1 mass flow rate check value iteration history trace: 6.655635E-002,6.655635E-002,6.655635E-002,6.655635E-002,6.655635E-002,6.655635E-002,6.655635E-002,6.655635E-002,6.655635E-002,6.655635E-002,
   **   ~~~   ** Air System Named = CENTRAL SYSTEM did not converge for energy
   **   ~~~   ** Check values should be zero. Most Recent values listed first.
   **   ~~~   ** Demand-to-Supply interface energy check value iteration history trace: 1319.014321,1319.014321,1319.014321,1319.014321,1319.014321,1319.014321,1319.014321,1319.014321,1319.014320,1319.014320,
   **   ~~~   ** Supply-to-demand interface deck 1 energy check value iteration history trace: 2121.943652,2121.943652,2121.943652,2121.943652,2121.943652,2121.943652,2121.943652,2121.943652,2121.943651,2121.943651,
   ** Warning ** SimHVAC: Maximum iterations (20) exceeded for all HVAC loops, at ANNUAL, 03/09 13:25 - 13:30
   **   ~~~   ** The solution for one or more of the Air Loop HVAC systems did not appear to converge
   **   ~~~   ** Air System Named = CENTRAL SYSTEM did not converge for mass flow rate
   **   ~~~   ** Check values should be zero. Most Recent values listed first.
   **   ~~~   ** Demand-to-Supply interface mass flow rate check value iteration history trace: 5.411556E-002,5.411556E-002,5.411556E-002,5.411556E-002,5.411556E-002,5.411556E-002,5.411556E-002,5.411556E-002,5.411556E-002,5.411556E-002,
   **   ~~~   ** Supply-to-demand interface deck 1 mass flow rate check value iteration history trace: 5.411556E-002,5.411556E-002,5.411556E-002,5.411556E-002,5.411556E-002,5.411556E-002,5.411556E-002,5.411556E-002,5.411556E-002,5.411556E-002,
   **   ~~~   ** Air System Named = CENTRAL SYSTEM did not converge for energy
   **   ~~~   ** Check values should be zero. Most Recent values listed first.
   **   ~~~   ** Demand-to-Supply interface energy check value iteration history trace: 1065.248422,1065.248422,1065.248422,1065.248422,1065.248422,1065.248422,1065.248422,1065.248422,1065.248422,1065.248422,
   **   ~~~   ** Supply-to-demand interface deck 1 energy check value iteration history trace: 1782.267529,1782.267529,1782.267529,1782.267529,1782.267529,1782.267528,1782.267528,1782.267528,1782.267528,1782.267528,
   ** Warning ** SimHVAC: Maximum iterations (20) exceeded for all HVAC loops, at ANNUAL, 03/21 11:40 - 11:45
   **   ~~~   ** The solution for one or more of the Air Loop HVAC systems did not appear to converge
   **   ~~~   ** Air System Named = CENTRAL SYSTEM did not converge for mass flow rate
   **   ~~~   ** Check values should be zero. Most Recent values listed first.
   **   ~~~   ** Demand-to-Supply interface mass flow rate check value iteration history trace: 5.164939E-002,5.164939E-002,5.164939E-002,5.164939E-002,5.164939E-002,5.164939E-002,5.164939E-002,5.164939E-002,5.164939E-002,5.164939E-002,
   **   ~~~   ** Supply-to-demand interface deck 1 mass flow rate check value iteration history trace: 5.164939E-002,5.164939E-002,5.164939E-002,5.164939E-002,5.164939E-002,5.164939E-002,5.164939E-002,5.164939E-002,5.164939E-002,5.164939E-002,
   **   ~~~   ** Air System Named = CENTRAL SYSTEM did not converge for energy
   **   ~~~   ** Check values should be zero. Most Recent values listed first.
   **   ~~~   ** Demand-to-Supply interface energy check value iteration history trace: 1023.561105,1023.561105,1023.561105,1023.561105,1023.561105,1023.561105,1023.561105,1023.561105,1023.561105,1023.561105,
   **   ~~~   ** Supply-to-demand interface deck 1 energy check value iteration history trace: 1858.229204,1858.229204,1858.229204,1858.229204,1858.229204,1858.229204,1858.229204,1858.229204,1858.229204,1858.229204,
   ** Warning ** SimHVAC: Maximum iterations (20) exceeded for all HVAC loops, at ANNUAL, 03/22 17:00 - 17:15
   **   ~~~   ** The solution for one or more of the Air Loop HVAC systems did not appear to converge
   **   ~~~   ** Air System Named = CENTRAL SYSTEM did not converge for mass flow rate
   **   ~~~   ** Check values should be zero. Most Recent values listed first.
   **   ~~~   ** Demand-to-Supply interface mass flow rate check value iteration history trace: 4.294223E-002,4.294223E-002,4.294223E-002,4.294223E-002,4.294223E-002,4.294223E-002,4.294223E-002,4.294223E-002,4.294223E-002,4.294223E-002,
   **   ~~~   ** Supply-to-demand interface deck 1 mass flow rate check value iteration history trace: 4.294223E-002,4.294223E-002,4.294223E-002,4.294223E-002,4.294223E-002,4.294223E-002,4.294223E-002,4.294223E-002,4.294223E-002,4.294223E-002,
   **   ~~~   ** Air System Named = CENTRAL SYSTEM did not converge for energy
   **   ~~~   ** Check values should be zero. Most Recent values listed first.
   **   ~~~   ** Demand-to-Supply interface energy check value iteration history trace: 850.811522,850.811522,850.811522,850.811522,850.811522,850.811522,850.811522,850.811522,850.811522,850.811522,
   **   ~~~   ** Supply-to-demand interface deck 1 energy check value iteration history trace: 1600.263258,1600.263258,1600.263258,1600.263258,1600.263258,1600.263258,1600.263258,1600.263258,1600.263258,1600.263258,
   ** Warning ** SimHVAC: Maximum iterations (20) exceeded for all HVAC loops, at ANNUAL, 03/26 11:58 - 12:00
   **   ~~~   ** The solution for one or more of the Air Loop HVAC systems did not appear to converge
   **   ~~~   ** Air System Named = CENTRAL SYSTEM did not converge for mass flow rate
   **   ~~~   ** Check values should be zero. Most Recent values listed first.
   **   ~~~   ** Demand-to-Supply interface mass flow rate check value iteration history trace: 3.764558E-002,3.764558E-002,3.764558E-002,3.764558E-002,3.764558E-002,3.764558E-002,3.764558E-002,3.764558E-002,3.764558E-002,3.764558E-002,
   **   ~~~   ** Supply-to-demand interface deck 1 mass flow rate check value iteration history trace: 3.764558E-002,3.764558E-002,3.764558E-002,3.764558E-002,3.764558E-002,3.764558E-002,3.764558E-002,3.764558E-002,3.764558E-002,3.764558E-002,
   **   ~~~   ** Air System Named = CENTRAL SYSTEM did not converge for energy
   **   ~~~   ** Check values should be zero. Most Recent values listed first.
   **   ~~~   ** Demand-to-Supply interface energy check value iteration history trace: 744.574555,744.574555,744.574555,744.574555,744.574554,744.574554,744.574554,744.574554,744.574554,744.574554,
   **   ~~~   ** Supply-to-demand interface deck 1 energy check value iteration history trace: 1511.667632,1511.667632,1511.667632,1511.667632,1511.667632,1511.667632,1511.667632,1511.667632,1511.667632,1511.667632,
   ** Warning ** SimHVAC: Maximum iterations (20) exceeded for all HVAC loops, at ANNUAL, 03/29 10:30 - 10:35
   **   ~~~   ** The solution for one or more of the Air Loop HVAC systems did not appear to converge
   **   ~~~   ** Air System Named = CENTRAL SYSTEM did not converge for mass flow rate
   **   ~~~   ** Check values should be zero. Most Recent values listed first.
   **   ~~~   ** Demand-to-Supply interface mass flow rate check value iteration history trace: 6.057418E-002,6.057418E-002,6.057418E-002,6.057418E-002,6.057418E-002,6.057418E-002,6.057418E-002,6.057418E-002,6.057418E-002,6.057418E-002,
   **   ~~~   ** Supply-to-demand interface deck 1 mass flow rate check value iteration history trace: 6.057418E-002,6.057418E-002,6.057418E-002,6.057418E-002,6.057418E-002,6.057418E-002,6.057418E-002,6.057418E-002,6.057418E-002,6.057418E-002,
   **   ~~~   ** Air System Named = CENTRAL SYSTEM did not converge for energy
   **   ~~~   ** Check values should be zero. Most Recent values listed first.
   **   ~~~   ** Demand-to-Supply interface energy check value iteration history trace: 1197.799698,1197.799698,1197.799698,1197.799698,1197.799698,1197.799698,1197.799698,1197.799697,1197.799697,1197.799697,
   **   ~~~   ** Supply-to-demand interface deck 1 energy check value iteration history trace: 1977.104057,1977.104057,1977.104057,1977.104057,1977.104057,1977.104056,1977.104056,1977.104056,1977.104056,1977.104056,
   ** Warning ** SimHVAC: Maximum iterations (20) exceeded for all HVAC loops, at ANNUAL, 04/24 18:45 - 19:00
   **   ~~~   ** The solution for one or more of the Air Loop HVAC systems did not appear to converge
   **   ~~~   ** Air System Named = CENTRAL SYSTEM did not converge for mass flow rate
   **   ~~~   ** Check values should be zero. Most Recent values listed first.
   **   ~~~   ** Demand-to-Supply interface mass flow rate check value iteration history trace: 7.555177E-002,7.555177E-002,7.555177E-002,7.555177E-002,7.555177E-002,7.555177E-002,7.555177E-002,7.555177E-002,7.555177E-002,7.555177E-002,
   **   ~~~   ** Supply-to-demand interface deck 1 mass flow rate check value iteration history trace: 7.555177E-002,7.555177E-002,7.555177E-002,7.555177E-002,7.555177E-002,7.555177E-002,7.555177E-002,7.555177E-002,7.555177E-002,7.555177E-002,
   **   ~~~   ** Air System Named = CENTRAL SYSTEM did not converge for energy
   **   ~~~   ** Check values should be zero. Most Recent values listed first.
   **   ~~~   ** Demand-to-Supply interface energy check value iteration history trace: 1484.881112,1484.881112,1484.881112,1484.881112,1484.881112,1484.881112,1484.881112,1484.881112,1484.881112,1484.881112,
   **   ~~~   ** Supply-to-demand interface deck 1 energy check value iteration history trace: 2368.144430,2368.144430,2368.144430,2368.144430,2368.144430,2368.144430,2368.144429,2368.144429,2368.144429,2368.144429,
   ** Warning ** SimHVAC: Maximum iterations (20) exceeded for all HVAC loops, at ANNUAL, 04/29 07:00 - 07:15
   **   ~~~   ** The solution for one or more of the Air Loop HVAC systems did not appear to converge
   **   ~~~   ** Air System Named = CENTRAL SYSTEM did not converge for mass flow rate
   **   ~~~   ** Check values should be zero. Most Recent values listed first.
   **   ~~~   ** Demand-to-Supply interface mass flow rate check value iteration history trace: 4.295806E-002,4.295806E-002,4.295806E-002,4.295806E-002,4.295806E-002,4.295806E-002,4.295806E-002,4.295806E-002,4.295806E-002,4.295806E-002,
   **   ~~~   ** Supply-to-demand interface deck 1 mass flow rate check value iteration history trace: 4.295806E-002,4.295806E-002,4.295806E-002,4.295806E-002,4.295806E-002,4.295806E-002,4.295806E-002,4.295806E-002,4.295806E-002,4.295806E-002,
   **   ~~~   ** Air System Named = CENTRAL SYSTEM did not converge for energy
   **   ~~~   ** Check values should be zero. Most Recent values listed first.
   **   ~~~   ** Demand-to-Supply interface energy check value iteration history trace: 851.265797,851.265796,851.265796,851.265796,851.265796,851.265796,851.265796,851.265796,851.265796,851.265796,
   **   ~~~   ** Supply-to-demand interface deck 1 energy check value iteration history trace: 1647.880250,1647.880250,1647.880250,1647.880250,1647.880250,1647.880250,1647.880250,1647.880250,1647.880250,1647.880250,
   ** Warning ** SimHVAC: Maximum iterations (20) exceeded for all HVAC loops, at ANNUAL, 04/29 07:00 - 07:08
   **   ~~~   ** The solution for one or more of the Air Loop HVAC systems did not appear to converge
   **   ~~~   ** Air System Named = CENTRAL SYSTEM did not converge for mass flow rate
   **   ~~~   ** Check values should be zero. Most Recent values listed first.
   **   ~~~   ** Demand-to-Supply interface mass flow rate check value iteration history trace: 4.321738E-002,4.321738E-002,4.321738E-002,4.321738E-002,4.321738E-002,4.321738E-002,4.321738E-002,4.321738E-002,4.321738E-002,4.321738E-002,
   **   ~~~   ** Supply-to-demand interface deck 1 mass flow rate check value iteration history trace: 4.321738E-002,4.321738E-002,4.321738E-002,4.321738E-002,4.321738E-002,4.321738E-002,4.321738E-002,4.321738E-002,4.321738E-002,4.321738E-002,
   **   ~~~   ** Air System Named = CENTRAL SYSTEM did not converge for energy
   **   ~~~   ** Check values should be zero. Most Recent values listed first.
   **   ~~~   ** Demand-to-Supply interface energy check value iteration history trace: 856.398631,856.398631,856.398631,856.398631,856.398631,856.398631,856.398631,856.398631,856.398631,856.398631,
   **   ~~~   ** Supply-to-demand interface deck 1 energy check value iteration history trace: 1657.793822,1657.793821,1657.793821,1657.793821,1657.793821,1657.793821,1657.793821,1657.793821,1657.793821,1657.793821,
   ** Warning ** SimHVAC: Maximum iterations (20) exceeded for all HVAC loops, at ANNUAL, 05/11 20:30 - 20:45
   **   ~~~   ** The solution for one or more of the Air Loop HVAC systems did not appear to converge
   **   ~~~   ** Air System Named = CENTRAL SYSTEM did not converge for mass flow rate
   **   ~~~   ** Check values should be zero. Most Recent values listed first.
   **   ~~~   ** Demand-to-Supply interface mass flow rate check value iteration history trace: 5.564594E-002,5.564594E-002,5.564594E-002,5.564594E-002,5.564594E-002,5.564594E-002,5.564594E-002,5.564594E-002,5.564594E-002,5.564594E-002,
   **   ~~~   ** Supply-to-demand interface deck 1 mass flow rate check value iteration history trace: 5.564594E-002,5.564594E-002,5.564594E-002,5.564594E-002,5.564594E-002,5.564594E-002,5.564594E-002,5.564594E-002,5.564594E-002,5.564594E-002,
   **   ~~~   ** Air System Named = CENTRAL SYSTEM did not converge for energy
   **   ~~~   ** Check values should be zero. Most Recent values listed first.
   **   ~~~   ** Demand-to-Supply interface energy check value iteration history trace: 1101.244676,1101.244676,1101.244676,1101.244676,1101.244676,1101.244676,1101.244676,1101.244676,1101.244676,1101.244676,
   **   ~~~   ** Supply-to-demand interface deck 1 energy check value iteration history trace: 1987.139564,1987.139564,1987.139564,1987.139564,1987.139564,1987.139564,1987.139564,1987.139564,1987.139564,1987.139564,
   ** Warning ** SimHVAC: Maximum iterations (20) exceeded for all HVAC loops, at ANNUAL, 05/15 06:45 - 06:52
   **   ~~~   ** The solution for one or more of the Air Loop HVAC systems did not appear to converge
   **   ~~~   ** Air System Named = CENTRAL SYSTEM did not converge for mass flow rate
   **   ~~~   ** Check values should be zero. Most Recent values listed first.
   **   ~~~   ** Demand-to-Supply interface mass flow rate check value iteration history trace: 5.588811E-002,5.588811E-002,5.588811E-002,5.588811E-002,5.588811E-002,5.588811E-002,5.588811E-002,5.588811E-002,5.588811E-002,5.588811E-002,
   **   ~~~   ** Supply-to-demand interface deck 1 mass flow rate check value iteration history trace: 5.588811E-002,5.588811E-002,5.588811E-002,5.588811E-002,5.588811E-002,5.588811E-002,5.588811E-002,5.588811E-002,5.588811E-002,5.588811E-002,
   **   ~~~   ** Air System Named = CENTRAL SYSTEM did not converge for energy
   **   ~~~   ** Check values should be zero. Most Recent values listed first.
   **   ~~~   ** Demand-to-Supply interface energy check value iteration history trace: 1099.013668,1099.013668,1099.013668,1099.013668,1099.013668,1099.013668,1099.013668,1099.013668,1099.013668,1099.013667,
   **   ~~~   ** Supply-to-demand interface deck 1 energy check value iteration history trace: 2097.262042,2097.262042,2097.262041,2097.262041,2097.262041,2097.262041,2097.262041,2097.262041,2097.262041,2097.262041,
   ************* Simulation Error Summary *************
   ** Warning ** The following Report Variables were requested but not generated -- check.rdd file
   **   ~~~   ** Either the IDF did not contain these elements, the variable name is misspelled,
   **   ~~~   ** or the requested variable is an advanced output which requires Output : Diagnostics, DisplayAdvancedReportVariables;
   ************* Key=*, VarName=BASEBOARD TOTAL HEATING ENERGY, Frequency=
   ************* Key=*, VarName=WATER HEATER NATURALGAS ENERGY, Frequency=
   ************* Key=*, VarName=COOLING COIL TOTAL HEATING ENERGY, Frequency=
   ************* There are 34 unused schedules in input.
   ************* There are 388 unused week schedules in input.
   ************* There are 396 unused day schedules in input.
   ************* Use Output:Diagnostics,DisplayUnusedSchedules; to see them.
   *************
   ************* ===== Recurring Error Summary =====
   ************* The following recurring error messages occurred.
   *************
   *************  ** Warning ** "TOTAL HOT WATER LOAD" - Target water temperature should be less than or equal to the hot water temperature error continues...
   *************  **   ~~~   **   This error occurred 48055 total times;
   *************  **   ~~~   **   during Warmup 0 times;
   *************  **   ~~~   **   during Sizing 0 times.
   *************  **   ~~~   **   Max=6.812025  Min=1.467307E-003
   *************
   *************  ** Warning ** SimHVAC: Exceeding Maximum iterations for all HVAC loops, during ANNUAL continues
   *************  **   ~~~   **   This error occurred 9 total times;
   *************  **   ~~~   **   during Warmup 0 times;
   *************  **   ~~~   **   during Sizing 0 times.
   *************
   *************
   ************* ===== Final Error Summary =====
   ************* The following error categories occurred.  Consider correcting or noting.
   ************* Nominally Unused Constructions
   ************* ..The nominally unused constructions warning is provided to alert you to potential conditions that can cause
   ************* ..extra time during simulation. Each construction is calculated by the algorithm indicated in the HeatBalanceAlgorithm
   ************* ..object. You may remove the constructions indicated (when you use the DisplayExtraWarnings option).
   *************
   ************* EnergyPlus Warmup Error Summary. During Warmup: 1 Warning; 0 Severe Errors.
   ************* EnergyPlus Sizing Error Summary. During Sizing: 4 Warning; 0 Severe Errors.
   ************* EnergyPlus Completed Successfully-- 48095 Warning; 0 Severe Errors; Elapsed Time=00hr 01min 21.53sec
