Program Version,EnergyPlus, Version 22.2.0-c249759bad, YMD=2023.09.01 17:51,
   ************* Beginning Zone Sizing Calculations
   ** Warning ** ProcessScheduleInput: Schedule:Constant="ALWAYS ON DISCRETE", Schedule Type Limits Name="ONOFF" not found -- will not be validated
   ** Warning ** Foundation:Kiva="KIVA FOUNDATION", no Interior Horizontal Insulation Material Name defined
   **   ~~~   ** Interior Horizontal Insulation Depth will not be used.
   ** Warning ** CheckUsedConstructions: There are 15 nominally unused constructions in input.
   **   ~~~   ** Each Unused construction is shown.
   ************* Construction=INTERIOR FLOOR
   ************* Construction=INTERIOR WINDOW
   ************* Construction=EXTERIOR DOOR
   ************* Construction=INTERIOR DOOR
   ************* Construction=GABLE CONSTRUCTION
   ************* Construction=CRAWL_FLOOR
   ************* Construction=INSULATED PIPE
   ************* Construction=PLAIN PIPE
   ************* Construction=TDD PIPE
   ************* Construction=TDD DOME
   ************* Construction=TDD DIFFUSER
   ************* Construction=CRAWL WALL
   ************* Construction=CEILING-FLOOR-LAYER
   ************* Construction=SLAB CONSTRUCTION W FULL R10 INSULATION
   ************* Construction=SLAB CONSTRUCTION W FULL R5 INSULATION
   ** Warning ** GetDXCoils: Coil:Heating:DX:SingleSpeed="DX_HEATING_COIL" curve values
   **   ~~~   ** ... Defrost Energy Input Ratio Function of Temperature Curve Name = DEFROSTEIR output is not equal to 1.0 (+ or - 10%) at rated conditions.
   **   ~~~   ** ... Curve output at rated conditions = 0.152
   ************* Beginning System Sizing Calculations
   ************* Beginning Plant Sizing Calculations
   ** Warning ** SizeDXCoil Coil:Cooling:DX:SingleSpeed DX_COOLING_COIL
   **   ~~~   ** ...Gross Rated Total Cooling Capacity [W] will be limited by the maximum rated volume flow per rated total capacity ratio.
   **   ~~~   ** ...DX coil volume flow rate ( m3/s ) = 0.341819
   **   ~~~   ** ...Requested capacity ( W ) = 4994.593
   **   ~~~   ** ...Requested flow/capacity ratio ( m3/s/W ) = 6.843E-005
   **   ~~~   ** ...Maximum flow/capacity ratio ( m3/s/W ) = 6.041E-005
   **   ~~~   ** ...Adjusted capacity ( W ) = 5658.324
   ** Warning ** Coil:WaterHeating:AirToWaterHeatPump:Wrapped "HEAT PUMP WATER HEATER EVAPORATOR": Rated air volume flow rate per watt of rated total water heating capacity is out of range
   **   ~~~   ** Min Rated Vol Flow Per Watt=[4.027E-005], Rated Vol Flow Per Watt=[1.510E-004], Max Rated Vol Flow Per Watt=[8.056E-005]. See Input-Output Reference Manual for valid range.
   ************* SizeFan: : Potential issue with equipment sizing for Fan:OnOff HEAT PUMP WATER HEATER FAN
   **   ~~~   ** User-Specified Maximum Flow Rate [m3/s] = 0.22653
   **   ~~~   ** differs from Design Size Maximum Flow Rate [m3/s] = 7.55250E-002
   **   ~~~   ** This may, or may not, indicate mismatched component sizes.
   **   ~~~   ** Verify that the value entered is intended and is consistent with other components.
   ** Warning ** Water heater = WATER HEATER TANK:  Recovery Efficiency and Energy Factor could not be calculated during the test for standard ratings
   **   ~~~   ** Setpoint was never recovered and/or heater never turned on
   ** Warning ** Check input. Pump nominal power or motor efficiency is set to 0, for pump=MAINS PRESSURE
   ** Warning ** Output:Meter: invalid Key Name="ELECTRIC_RANGE:INTERIOREQUIPMENT:ELECTRICITY" - not found.
   ** Warning ** Output:Meter: invalid Key Name="ELECTRIC_DRYER:INTERIOREQUIPMENT:ELECTRICITY" - not found.
   ** Warning ** Output:Meter: invalid Key Name="HEATRECOVERY:ELECTRICITY" - not found.
   ** Warning ** Output:Meter: invalid Key Name="HEATING:NATURALGAS" - not found.
   ** Warning ** Output:Meter: invalid Key Name="WATERSYSTEMS:NATURALGAS" - not found.
   ** Warning ** Output:Meter: invalid Key Name="PROPANE:FACILITY" - not found.
   ** Warning ** Output:Meter: invalid Key Name="HEATING:PROPANE" - not found.
   ************* Testing Individual Branch Integrity
   ************* All Branches passed integrity testing
   ************* Testing Individual Supply Air Path Integrity
   ************* All Supply Air Paths passed integrity testing
   ************* Testing Individual Return Air Path Integrity
   ************* All Return Air Paths passed integrity testing
   ************* No node connection errors were found.
   ************* Beginning Simulation
   ** Warning ** AirflowNetwork::Solver::validate_distribution: Heat pump water heater is simulated along with an AirflowNetwork but is not included in the AirflowNetwork.
   ** Severe  ** CheckWarmupConvergence: Loads Initialization, Zone="LIVING" did not converge after 25 warmup days.
   **   ~~~   ** See Warmup Convergence Information in .eio file for details.
   **   ~~~   ** ...Environment(SizingPeriod)="EXTREME_WINTER"
   **   ~~~   ** ..Max Temp Comparison = 6.58E-002 vs Temperature Convergence Tolerance=5.00E-002 - Fail Convergence
   **   ~~~   ** ..Min Temp Comparison = 4.51E-003 vs Temperature Convergence Tolerance=5.00E-002 - Pass Convergence
   **   ~~~   ** ..Max Heat Load Comparison = 1.2983E-002 vs Loads Convergence Tolerance=5.00E-002 - Pass Convergence
   **   ~~~   ** ..Max Cool Load Comparison = 1.0863E-003 vs Loads Convergence Tolerance=5.00E-002 - Pass Convergence
   ** Severe  ** CheckWarmupConvergence: Loads Initialization, Zone="ATTIC" did not converge after 25 warmup days.
   **   ~~~   ** ...Environment(SizingPeriod)="EXTREME_WINTER"
   **   ~~~   ** ..Max Temp Comparison = 6.90E-002 vs Temperature Convergence Tolerance=5.00E-002 - Fail Convergence
   **   ~~~   ** ..Min Temp Comparison = 1.85E-002 vs Temperature Convergence Tolerance=5.00E-002 - Pass Convergence
   **   ~~~   ** ..Max Heat Load Comparison = 0.0000 vs Loads Convergence Tolerance=5.00E-002 - Pass Convergence
   **   ~~~   ** ..Max Cool Load Comparison = 0.0000 vs Loads Convergence Tolerance=5.00E-002 - Pass Convergence
   ** Warning ** CalcEquipmentFlowRates: "TOTAL HOT WATER LOAD" - Target water temperature is greater than the hot water temperature by (1.09 C)
   **   ~~~   **  Environment=EXTREME_WINTER, at Simulation time=01/01 06:00 - 06:15
   **   ~~~   ** ...target water temperature     = 53.33 C
   **   ~~~   ** ...hot water temperature        = 52.24 C
   **   ~~~   ** ...Target water temperature should be less than or equal to the hot water temperature. Verify temperature setpoints and schedules.
   ** Warning ** SimHVAC: Maximum iterations (20) exceeded for all HVAC loops, at EXTREME_WINTER, 01/01 20:08 - 20:15
   **   ~~~   ** The solution for one or more of the Air Loop HVAC systems did not appear to converge
   **   ~~~   ** Air System Named = CENTRAL SYSTEM did not converge for mass flow rate
   **   ~~~   ** Check values should be zero. Most Recent values listed first.
   **   ~~~   ** Demand-to-Supply interface mass flow rate check value iteration history trace: 9.722116E-002,9.722116E-002,9.722116E-002,9.722116E-002,9.722116E-002,9.722116E-002,9.722116E-002,9.722116E-002,9.722116E-002,9.722116E-002,
   **   ~~~   ** Supply-to-demand interface deck 1 mass flow rate check value iteration history trace: 9.722116E-002,9.722116E-002,9.722116E-002,9.722116E-002,9.722116E-002,9.722116E-002,9.722116E-002,9.722116E-002,9.722116E-002,9.722116E-002,
   **   ~~~   ** Air System Named = CENTRAL SYSTEM did not converge for energy
   **   ~~~   ** Check values should be zero. Most Recent values listed first.
   **   ~~~   ** Demand-to-Supply interface energy check value iteration history trace: 1922.244177,1922.244177,1922.244177,1922.244177,1922.244176,1922.244176,1922.244176,1922.244176,1922.244176,1922.244176,
   **   ~~~   ** Supply-to-demand interface deck 1 energy check value iteration history trace: 2913.918941,2913.918941,2913.918941,2913.918941,2913.918941,2913.918940,2913.918940,2913.918940,2913.918940,2913.918939,
   ** Warning ** SimHVAC: Maximum iterations (20) exceeded for all HVAC loops, at ANNUAL, 01/01 11:30 - 11:45
   **   ~~~   ** The solution for one or more of the Air Loop HVAC systems did not appear to converge
   **   ~~~   ** Air System Named = CENTRAL SYSTEM did not converge for mass flow rate
   **   ~~~   ** Check values should be zero. Most Recent values listed first.
   **   ~~~   ** Demand-to-Supply interface mass flow rate check value iteration history trace: 8.640540E-002,8.640540E-002,8.640540E-002,8.640540E-002,8.640540E-002,8.640540E-002,8.640540E-002,8.640540E-002,8.640540E-002,8.640540E-002,
   **   ~~~   ** Supply-to-demand interface deck 1 mass flow rate check value iteration history trace: 8.640540E-002,8.640540E-002,8.640540E-002,8.640540E-002,8.640540E-002,8.640540E-002,8.640540E-002,8.640540E-002,8.640540E-002,8.640540E-002,
   **   ~~~   ** Air System Named = CENTRAL SYSTEM did not converge for energy
   **   ~~~   ** Check values should be zero. Most Recent values listed first.
   **   ~~~   ** Demand-to-Supply interface energy check value iteration history trace: 1712.106072,1712.106072,1712.106071,1712.106071,1712.106071,1712.106071,1712.106071,1712.106071,1712.106071,1712.106071,
   **   ~~~   ** Supply-to-demand interface deck 1 energy check value iteration history trace: 2639.338917,2639.338917,2639.338917,2639.338916,2639.338916,2639.338916,2639.338916,2639.338916,2639.338915,2639.338915,
   ** Warning ** SimHVAC: Maximum iterations (20) exceeded for all HVAC loops, at ANNUAL, 01/14 20:00 - 20:15
   **   ~~~   ** The solution for one or more of the Air Loop HVAC systems did not appear to converge
   **   ~~~   ** Air System Named = CENTRAL SYSTEM did not converge for mass flow rate
   **   ~~~   ** Check values should be zero. Most Recent values listed first.
   **   ~~~   ** Demand-to-Supply interface mass flow rate check value iteration history trace: 5.531744E-002,5.531744E-002,5.531744E-002,5.531744E-002,5.531744E-002,5.531744E-002,5.531744E-002,5.531744E-002,5.531744E-002,5.531744E-002,
   **   ~~~   ** Supply-to-demand interface deck 1 mass flow rate check value iteration history trace: 5.531744E-002,5.531744E-002,5.531744E-002,5.531744E-002,5.531744E-002,5.531744E-002,5.531744E-002,5.531744E-002,5.531744E-002,5.531744E-002,
   **   ~~~   ** Air System Named = CENTRAL SYSTEM did not converge for energy
   **   ~~~   ** Check values should be zero. Most Recent values listed first.
   **   ~~~   ** Demand-to-Supply interface energy check value iteration history trace: 1094.921112,1094.921112,1094.921111,1094.921111,1094.921111,1094.921111,1094.921111,1094.921111,1094.921110,1094.921110,
   **   ~~~   ** Supply-to-demand interface deck 1 energy check value iteration history trace: 1931.968149,1931.968149,1931.968149,1931.968149,1931.968148,1931.968148,1931.968148,1931.968147,1931.968147,1931.968147,
   **   ~~~   ** Node named ZONE INLET NODE shows oscillating temperatures across iterations with a repeated value of 34.756763
   **   ~~~   ** Node named ZONE INLET NODE temperature [C] iteration history trace (most recent first): 34.756763,34.756763,34.756762,34.756762,34.756762,34.756762,34.756761,34.756761,34.756761,34.756761,
   ** Warning ** SimHVAC: Maximum iterations (20) exceeded for all HVAC loops, at ANNUAL, 01/16 20:30 - 20:38
   **   ~~~   ** The solution for one or more of the Air Loop HVAC systems did not appear to converge
   **   ~~~   ** Air System Named = CENTRAL SYSTEM did not converge for mass flow rate
   **   ~~~   ** Check values should be zero. Most Recent values listed first.
   **   ~~~   ** Demand-to-Supply interface mass flow rate check value iteration history trace: 5.502811E-002,5.502811E-002,5.502811E-002,5.502811E-002,5.502811E-002,5.502811E-002,5.502811E-002,5.502811E-002,5.502811E-002,5.502811E-002,
   **   ~~~   ** Supply-to-demand interface deck 1 mass flow rate check value iteration history trace: 5.502811E-002,5.502811E-002,5.502811E-002,5.502811E-002,5.502811E-002,5.502811E-002,5.502811E-002,5.502811E-002,5.502811E-002,5.502811E-002,
   **   ~~~   ** Air System Named = CENTRAL SYSTEM did not converge for energy
   **   ~~~   ** Check values should be zero. Most Recent values listed first.
   **   ~~~   ** Demand-to-Supply interface energy check value iteration history trace: 1088.870339,1088.870339,1088.870339,1088.870339,1088.870339,1088.870338,1088.870338,1088.870338,1088.870338,1088.870338,
   **   ~~~   ** Supply-to-demand interface deck 1 energy check value iteration history trace: 1921.001444,1921.001444,1921.001443,1921.001443,1921.001443,1921.001442,1921.001442,1921.001442,1921.001441,1921.001441,
   **   ~~~   ** Node named ZONE INLET NODE shows oscillating temperatures across iterations with a repeated value of 34.741178
   **   ~~~   ** Node named ZONE INLET NODE temperature [C] iteration history trace (most recent first): 34.741178,34.741178,34.741178,34.741178,34.741177,34.741177,34.741177,34.741177,34.741176,34.741176,
   ** Warning ** SimHVAC: Maximum iterations (20) exceeded for all HVAC loops, at ANNUAL, 01/22 22:15 - 22:30
   **   ~~~   ** The solution for one or more of the Air Loop HVAC systems did not appear to converge
   **   ~~~   ** Air System Named = CENTRAL SYSTEM did not converge for mass flow rate
   **   ~~~   ** Check values should be zero. Most Recent values listed first.
   **   ~~~   ** Demand-to-Supply interface mass flow rate check value iteration history trace: 6.339469E-002,6.339469E-002,6.339469E-002,6.339469E-002,6.339469E-002,6.339469E-002,6.339469E-002,6.339469E-002,6.339469E-002,6.339469E-002,
   **   ~~~   ** Supply-to-demand interface deck 1 mass flow rate check value iteration history trace: 6.339469E-002,6.339469E-002,6.339469E-002,6.339469E-002,6.339469E-002,6.339469E-002,6.339469E-002,6.339469E-002,6.339469E-002,6.339469E-002,
   **   ~~~   ** Air System Named = CENTRAL SYSTEM did not converge for energy
   **   ~~~   ** Check values should be zero. Most Recent values listed first.
   **   ~~~   ** Demand-to-Supply interface energy check value iteration history trace: 1177.855629,1177.855629,1177.855629,1177.855629,1177.855629,1177.855629,1177.855629,1177.855629,1177.855629,1177.855629,
   **   ~~~   ** Supply-to-demand interface deck 1 energy check value iteration history trace: 2024.850330,2024.850329,2024.850329,2024.850329,2024.850329,2024.850329,2024.850329,2024.850329,2024.850329,2024.850329,
   ** Warning ** SimHVAC: Maximum iterations (20) exceeded for all HVAC loops, at ANNUAL, 02/19 12:34 - 12:36
   **   ~~~   ** The solution for one or more of the Air Loop HVAC systems did not appear to converge
   **   ~~~   ** Air System Named = CENTRAL SYSTEM did not converge for mass flow rate
   **   ~~~   ** Check values should be zero. Most Recent values listed first.
   **   ~~~   ** Demand-to-Supply interface mass flow rate check value iteration history trace: 6.801057E-002,6.801057E-002,6.801057E-002,6.801057E-002,6.801057E-002,6.801057E-002,6.801057E-002,6.801057E-002,6.801057E-002,6.801057E-002,
   **   ~~~   ** Supply-to-demand interface deck 1 mass flow rate check value iteration history trace: 6.801057E-002,6.801057E-002,6.801057E-002,6.801057E-002,6.801057E-002,6.801057E-002,6.801057E-002,6.801057E-002,6.801057E-002,6.801057E-002,
   **   ~~~   ** Air System Named = CENTRAL SYSTEM did not converge for energy
   **   ~~~   ** Check values should be zero. Most Recent values listed first.
   **   ~~~   ** Demand-to-Supply interface energy check value iteration history trace: 1347.817598,1347.817598,1347.817598,1347.817598,1347.817598,1347.817598,1347.817597,1347.817597,1347.817597,1347.817597,
   **   ~~~   ** Supply-to-demand interface deck 1 energy check value iteration history trace: 2238.897449,2238.897449,2238.897449,2238.897449,2238.897449,2238.897449,2238.897449,2238.897449,2238.897448,2238.897448,
   ** Warning ** SimHVAC: Maximum iterations (20) exceeded for all HVAC loops, at ANNUAL, 02/23 01:15 - 01:22
   **   ~~~   ** The solution for one or more of the Air Loop HVAC systems did not appear to converge
   **   ~~~   ** Air System Named = CENTRAL SYSTEM did not converge for mass flow rate
   **   ~~~   ** Check values should be zero. Most Recent values listed first.
   **   ~~~   ** Demand-to-Supply interface mass flow rate check value iteration history trace: 6.118373E-002,6.118373E-002,6.118373E-002,6.118373E-002,6.118373E-002,6.118373E-002,6.118373E-002,6.118373E-002,6.118373E-002,6.118373E-002,
   **   ~~~   ** Supply-to-demand interface deck 1 mass flow rate check value iteration history trace: 6.118373E-002,6.118373E-002,6.118373E-002,6.118373E-002,6.118373E-002,6.118373E-002,6.118373E-002,6.118373E-002,6.118373E-002,6.118373E-002,
   **   ~~~   ** Air System Named = CENTRAL SYSTEM did not converge for energy
   **   ~~~   ** Check values should be zero. Most Recent values listed first.
   **   ~~~   ** Demand-to-Supply interface energy check value iteration history trace: 1141.781281,1141.781281,1141.781281,1141.781281,1141.781280,1141.781280,1141.781280,1141.781280,1141.781280,1141.781280,
   **   ~~~   ** Supply-to-demand interface deck 1 energy check value iteration history trace: 1963.940486,1963.940486,1963.940485,1963.940485,1963.940485,1963.940485,1963.940485,1963.940485,1963.940485,1963.940485,
   ** Warning ** SimHVAC: Maximum iterations (20) exceeded for all HVAC loops, at ANNUAL, 03/05 12:30 - 12:38
   **   ~~~   ** The solution for one or more of the Air Loop HVAC systems did not appear to converge
   **   ~~~   ** Air System Named = CENTRAL SYSTEM did not converge for mass flow rate
   **   ~~~   ** Check values should be zero. Most Recent values listed first.
   **   ~~~   ** Demand-to-Supply interface mass flow rate check value iteration history trace: 6.107193E-002,6.107193E-002,6.107193E-002,6.107193E-002,6.107193E-002,6.107193E-002,6.107193E-002,6.107193E-002,6.107193E-002,6.107193E-002,
   **   ~~~   ** Supply-to-demand interface deck 1 mass flow rate check value iteration history trace: 6.107193E-002,6.107193E-002,6.107193E-002,6.107193E-002,6.107193E-002,6.107193E-002,6.107193E-002,6.107193E-002,6.107193E-002,6.107193E-002,
   **   ~~~   ** Air System Named = CENTRAL SYSTEM did not converge for energy
   **   ~~~   ** Check values should be zero. Most Recent values listed first.
   **   ~~~   ** Demand-to-Supply interface energy check value iteration history trace: 1209.716949,1209.716949,1209.716949,1209.716949,1209.716949,1209.716949,1209.716948,1209.716948,1209.716948,1209.716948,
   **   ~~~   ** Supply-to-demand interface deck 1 energy check value iteration history trace: 2090.708237,2090.708237,2090.708237,2090.708237,2090.708237,2090.708237,2090.708237,2090.708237,2090.708237,2090.708236,
   ** Warning ** SimHVAC: Maximum iterations (20) exceeded for all HVAC loops, at ANNUAL, 03/11 10:30 - 10:45
   **   ~~~   ** The solution for one or more of the Air Loop HVAC systems did not appear to converge
   **   ~~~   ** Air System Named = CENTRAL SYSTEM did not converge for mass flow rate
   **   ~~~   ** Check values should be zero. Most Recent values listed first.
   **   ~~~   ** Demand-to-Supply interface mass flow rate check value iteration history trace: 6.631637E-002,6.631637E-002,6.631637E-002,6.631637E-002,6.631637E-002,6.631637E-002,6.631637E-002,6.631637E-002,6.631637E-002,6.631637E-002,
   **   ~~~   ** Supply-to-demand interface deck 1 mass flow rate check value iteration history trace: 6.631637E-002,6.631637E-002,6.631637E-002,6.631637E-002,6.631637E-002,6.631637E-002,6.631637E-002,6.631637E-002,6.631637E-002,6.631637E-002,
   **   ~~~   ** Air System Named = CENTRAL SYSTEM did not converge for energy
   **   ~~~   ** Check values should be zero. Most Recent values listed first.
   **   ~~~   ** Demand-to-Supply interface energy check value iteration history trace: 1314.199005,1314.199005,1314.199005,1314.199005,1314.199005,1314.199005,1314.199005,1314.199005,1314.199005,1314.199005,
   **   ~~~   ** Supply-to-demand interface deck 1 energy check value iteration history trace: 2254.973857,2254.973857,2254.973857,2254.973856,2254.973856,2254.973856,2254.973856,2254.973856,2254.973856,2254.973856,
   ** Warning ** SimHVAC: Maximum iterations (20) exceeded for all HVAC loops, at ANNUAL, 03/13 14:15 - 14:30
   **   ~~~   ** The solution for one or more of the Air Loop HVAC systems did not appear to converge
   **   ~~~   ** Air System Named = CENTRAL SYSTEM did not converge for mass flow rate
   **   ~~~   ** Check values should be zero. Most Recent values listed first.
   **   ~~~   ** Demand-to-Supply interface mass flow rate check value iteration history trace: 5.214864E-002,5.214864E-002,5.214864E-002,5.214864E-002,5.214864E-002,5.214864E-002,5.214864E-002,5.214864E-002,5.214864E-002,5.214864E-002,
   **   ~~~   ** Supply-to-demand interface deck 1 mass flow rate check value iteration history trace: 5.214864E-002,5.214864E-002,5.214864E-002,5.214864E-002,5.214864E-002,5.214864E-002,5.214864E-002,5.214864E-002,5.214864E-002,5.214864E-002,
   **   ~~~   ** Air System Named = CENTRAL SYSTEM did not converge for energy
   **   ~~~   ** Check values should be zero. Most Recent values listed first.
   **   ~~~   ** Demand-to-Supply interface energy check value iteration history trace: 1033.390398,1033.390398,1033.390397,1033.390397,1033.390397,1033.390397,1033.390397,1033.390397,1033.390397,1033.390397,
   **   ~~~   ** Supply-to-demand interface deck 1 energy check value iteration history trace: 1835.454110,1835.454110,1835.454110,1835.454110,1835.454110,1835.454110,1835.454109,1835.454109,1835.454109,1835.454109,
   ** Warning ** SimHVAC: Maximum iterations (20) exceeded for all HVAC loops, at ANNUAL, 03/20 18:45 - 19:00
   **   ~~~   ** The solution for one or more of the Air Loop HVAC systems did not appear to converge
   **   ~~~   ** Air System Named = CENTRAL SYSTEM did not converge for mass flow rate
   **   ~~~   ** Check values should be zero. Most Recent values listed first.
   **   ~~~   ** Demand-to-Supply interface mass flow rate check value iteration history trace: 7.173120E-002,7.173120E-002,7.173120E-002,7.173120E-002,7.173120E-002,7.173120E-002,7.173120E-002,7.173120E-002,7.173120E-002,7.173120E-002,
   **   ~~~   ** Supply-to-demand interface deck 1 mass flow rate check value iteration history trace: 7.173120E-002,7.173120E-002,7.173120E-002,7.173120E-002,7.173120E-002,7.173120E-002,7.173120E-002,7.173120E-002,7.173120E-002,7.173120E-002,
   **   ~~~   ** Air System Named = CENTRAL SYSTEM did not converge for energy
   **   ~~~   ** Check values should be zero. Most Recent values listed first.
   **   ~~~   ** Demand-to-Supply interface energy check value iteration history trace: 1420.329585,1420.329585,1420.329585,1420.329585,1420.329584,1420.329584,1420.329584,1420.329584,1420.329584,1420.329584,
   **   ~~~   ** Supply-to-demand interface deck 1 energy check value iteration history trace: 2373.584062,2373.584062,2373.584062,2373.584062,2373.584062,2373.584062,2373.584062,2373.584061,2373.584061,2373.584061,
   ** Warning ** SimHVAC: Maximum iterations (20) exceeded for all HVAC loops, at ANNUAL, 04/03 08:15 - 08:20
   **   ~~~   ** The solution for one or more of the Air Loop HVAC systems did not appear to converge
   **   ~~~   ** Air System Named = CENTRAL SYSTEM did not converge for mass flow rate
   **   ~~~   ** Check values should be zero. Most Recent values listed first.
   **   ~~~   ** Demand-to-Supply interface mass flow rate check value iteration history trace: 6.727826E-002,6.727826E-002,6.727826E-002,6.727826E-002,6.727826E-002,6.727826E-002,6.727826E-002,6.727826E-002,6.727826E-002,6.727826E-002,
   **   ~~~   ** Supply-to-demand interface deck 1 mass flow rate check value iteration history trace: 6.727826E-002,6.727826E-002,6.727826E-002,6.727826E-002,6.727826E-002,6.727826E-002,6.727826E-002,6.727826E-002,6.727826E-002,6.727826E-002,
   **   ~~~   ** Air System Named = CENTRAL SYSTEM did not converge for energy
   **   ~~~   ** Check values should be zero. Most Recent values listed first.
   **   ~~~   ** Demand-to-Supply interface energy check value iteration history trace: 1333.145473,1333.145473,1333.145473,1333.145473,1333.145473,1333.145473,1333.145473,1333.145472,1333.145472,1333.145472,
   **   ~~~   ** Supply-to-demand interface deck 1 energy check value iteration history trace: 2270.619879,2270.619879,2270.619879,2270.619879,2270.619879,2270.619879,2270.619878,2270.619878,2270.619878,2270.619878,
   ** Warning ** SimHVAC: Maximum iterations (20) exceeded for all HVAC loops, at ANNUAL, 04/04 08:30 - 08:45
   **   ~~~   ** The solution for one or more of the Air Loop HVAC systems did not appear to converge
   **   ~~~   ** Air System Named = CENTRAL SYSTEM did not converge for mass flow rate
   **   ~~~   ** Check values should be zero. Most Recent values listed first.
   **   ~~~   ** Demand-to-Supply interface mass flow rate check value iteration history trace: 6.658585E-002,6.658585E-002,6.658585E-002,6.658585E-002,6.658585E-002,6.658585E-002,6.658585E-002,6.658585E-002,6.658585E-002,6.658585E-002,
   **   ~~~   ** Supply-to-demand interface deck 1 mass flow rate check value iteration history trace: 6.658585E-002,6.658585E-002,6.658585E-002,6.658585E-002,6.658585E-002,6.658585E-002,6.658585E-002,6.658585E-002,6.658585E-002,6.658585E-002,
   **   ~~~   ** Air System Named = CENTRAL SYSTEM did not converge for energy
   **   ~~~   ** Check values should be zero. Most Recent values listed first.
   **   ~~~   ** Demand-to-Supply interface energy check value iteration history trace: 1316.332362,1316.332362,1316.332362,1316.332362,1316.332362,1316.332362,1316.332362,1316.332362,1316.332362,1316.332362,
   **   ~~~   ** Supply-to-demand interface deck 1 energy check value iteration history trace: 2286.137681,2286.137681,2286.137681,2286.137681,2286.137681,2286.137681,2286.137681,2286.137680,2286.137680,2286.137680,
   ** Warning ** SimHVAC: Maximum iterations (20) exceeded for all HVAC loops, at ANNUAL, 04/10 07:36 - 07:39
   **   ~~~   ** The solution for one or more of the Air Loop HVAC systems did not appear to converge
   **   ~~~   ** Air System Named = CENTRAL SYSTEM did not converge for mass flow rate
   **   ~~~   ** Check values should be zero. Most Recent values listed first.
   **   ~~~   ** Demand-to-Supply interface mass flow rate check value iteration history trace: 6.528578E-002,6.528578E-002,6.528578E-002,6.528578E-002,6.528578E-002,6.528578E-002,6.528578E-002,6.528578E-002,6.528578E-002,6.528578E-002,
   **   ~~~   ** Supply-to-demand interface deck 1 mass flow rate check value iteration history trace: 6.528578E-002,6.528578E-002,6.528578E-002,6.528578E-002,6.528578E-002,6.528578E-002,6.528578E-002,6.528578E-002,6.528578E-002,6.528578E-002,
   **   ~~~   ** Air System Named = CENTRAL SYSTEM did not converge for energy
   **   ~~~   ** Check values should be zero. Most Recent values listed first.
   **   ~~~   ** Demand-to-Supply interface energy check value iteration history trace: 1286.492400,1286.492400,1286.492400,1286.492400,1286.492400,1286.492400,1286.492400,1286.492400,1286.492400,1286.492400,
   **   ~~~   ** Supply-to-demand interface deck 1 energy check value iteration history trace: 2239.244904,2239.244904,2239.244904,2239.244904,2239.244904,2239.244903,2239.244903,2239.244903,2239.244903,2239.244903,
   ************* Simulation Error Summary *************
   ** Warning ** The following Report Variables were requested but not generated -- check.rdd file
   **   ~~~   ** Either the IDF did not contain these elements, the variable name is misspelled,
   **   ~~~   ** or the requested variable is an advanced output which requires Output : Diagnostics, DisplayAdvancedReportVariables;
   ************* Key=*, VarName=BASEBOARD TOTAL HEATING ENERGY, Frequency=
   ************* Key=*, VarName=WATER HEATER NATURALGAS ENERGY, Frequency=
   ************* Key=*, VarName=COOLING COIL TOTAL HEATING ENERGY, Frequency=
   ************* There are 34 unused schedules in input.
   ************* There are 388 unused week schedules in input.
   ************* There are 396 unused day schedules in input.
   ************* Use Output:Diagnostics,DisplayUnusedSchedules; to see them.
   *************
   ************* ===== Recurring Error Summary =====
   ************* The following recurring error messages occurred.
   *************
   *************  ** Warning ** "TOTAL HOT WATER LOAD" - Target water temperature should be less than or equal to the hot water temperature error continues...
   *************  **   ~~~   **   This error occurred 110353 total times;
   *************  **   ~~~   **   during Warmup 0 times;
   *************  **   ~~~   **   during Sizing 0 times.
   *************  **   ~~~   **   Max=9.276514  Min=1.609592E-003
   *************
   *************  ** Warning ** SimHVAC: Exceeding Maximum iterations for all HVAC loops, during ANNUAL continues
   *************  **   ~~~   **   This error occurred 28 total times;
   *************  **   ~~~   **   during Warmup 0 times;
   *************  **   ~~~   **   during Sizing 0 times.
   *************
   *************
   ************* ===== Final Error Summary =====
   ************* The following error categories occurred.  Consider correcting or noting.
   ************* Loads Initialization did not Converge
   ************* ..1) very high thermal mass such as very thick concrete (solution: increase max number of warmup
   ************* ..   days in the BUILDING object);
   ************* ..2) moderate mass and inadequate space conditioning such that the building keeps getting warmer
   ************* ..   and warmer on successive days (solution: add HVAC, check building thermal properties,
   ************* ..   check if infiltration is included, make sure HVAC properly controlled);
   ************* ..3) a soil layer modeled below the concrete slab - (solution remove this layer and read about
   ************* ..   ground temperatures in the Auxiliary Programs document).
   ************* ..4) unreasonable (too small) limits in the BUILDING object for temperature (.4 default) or
   ************* ..   loads tolerances (.04 default)
   ************* Nominally Unused Constructions
   ************* ..The nominally unused constructions warning is provided to alert you to potential conditions that can cause
   ************* ..extra time during simulation. Each construction is calculated by the algorithm indicated in the HeatBalanceAlgorithm
   ************* ..object. You may remove the constructions indicated (when you use the DisplayExtraWarnings option).
   *************
   ************* EnergyPlus Warmup Error Summary. During Warmup: 1 Warning; 2 Severe Errors.
   ************* EnergyPlus Sizing Error Summary. During Sizing: 4 Warning; 0 Severe Errors.
   ************* EnergyPlus Completed Successfully-- 110413 Warning; 2 Severe Errors; Elapsed Time=00hr 04min 52.39sec
