Program Version,EnergyPlus, Version 22.2.0-c249759bad, YMD=2023.09.01 18:58,
   ************* Beginning Zone Sizing Calculations
   ** Warning ** ProcessScheduleInput: Schedule:Constant="ALWAYS ON DISCRETE", Schedule Type Limits Name="ONOFF" not found -- will not be validated
   ** Warning ** Foundation:Kiva="KIVA FOUNDATION", no Interior Horizontal Insulation Material Name defined
   **   ~~~   ** Interior Horizontal Insulation Depth will not be used.
   ** Warning ** CheckUsedConstructions: There are 15 nominally unused constructions in input.
   **   ~~~   ** Each Unused construction is shown.
   ************* Construction=INTERIOR FLOOR
   ************* Construction=INTERIOR WINDOW
   ************* Construction=EXTERIOR DOOR
   ************* Construction=INTERIOR DOOR
   ************* Construction=GABLE CONSTRUCTION
   ************* Construction=CRAWL_FLOOR
   ************* Construction=INSULATED PIPE
   ************* Construction=PLAIN PIPE
   ************* Construction=TDD PIPE
   ************* Construction=TDD DOME
   ************* Construction=TDD DIFFUSER
   ************* Construction=CRAWL WALL
   ************* Construction=CEILING-FLOOR-LAYER
   ************* Construction=SLAB CONSTRUCTION W FULL R10 INSULATION
   ************* Construction=SLAB CONSTRUCTION W FULL R5 INSULATION
   ** Warning ** GetDXCoils: Coil:Heating:DX:SingleSpeed="DX_HEATING_COIL" curve values
   **   ~~~   ** ... Defrost Energy Input Ratio Function of Temperature Curve Name = DEFROSTEIR output is not equal to 1.0 (+ or - 10%) at rated conditions.
   **   ~~~   ** ... Curve output at rated conditions = 0.152
   ************* Beginning System Sizing Calculations
   ************* Beginning Plant Sizing Calculations
   ** Warning ** SizeDXCoil Coil:Cooling:DX:SingleSpeed DX_COOLING_COIL
   **   ~~~   ** ...Gross Rated Total Cooling Capacity [W] will be limited by the maximum rated volume flow per rated total capacity ratio.
   **   ~~~   ** ...DX coil volume flow rate ( m3/s ) = 0.517483
   **   ~~~   ** ...Requested capacity ( W ) = 6358.991
   **   ~~~   ** ...Requested flow/capacity ratio ( m3/s/W ) = 8.137E-005
   **   ~~~   ** ...Maximum flow/capacity ratio ( m3/s/W ) = 6.041E-005
   **   ~~~   ** ...Adjusted capacity ( W ) = 8566.192
   ** Warning ** Coil:WaterHeating:AirToWaterHeatPump:Wrapped "HEAT PUMP WATER HEATER EVAPORATOR": Rated air volume flow rate per watt of rated total water heating capacity is out of range
   **   ~~~   ** Min Rated Vol Flow Per Watt=[4.027E-005], Rated Vol Flow Per Watt=[1.510E-004], Max Rated Vol Flow Per Watt=[8.056E-005]. See Input-Output Reference Manual for valid range.
   ************* SizeFan: : Potential issue with equipment sizing for Fan:OnOff HEAT PUMP WATER HEATER FAN
   **   ~~~   ** User-Specified Maximum Flow Rate [m3/s] = 0.22653
   **   ~~~   ** differs from Design Size Maximum Flow Rate [m3/s] = 7.55250E-002
   **   ~~~   ** This may, or may not, indicate mismatched component sizes.
   **   ~~~   ** Verify that the value entered is intended and is consistent with other components.
   ** Warning ** Water heater = WATER HEATER TANK:  Recovery Efficiency and Energy Factor could not be calculated during the test for standard ratings
   **   ~~~   ** Setpoint was never recovered and/or heater never turned on
   ** Warning ** Check input. Pump nominal power or motor efficiency is set to 0, for pump=MAINS PRESSURE
   ** Warning ** Output:Meter: invalid Key Name="ELECTRIC_RANGE:INTERIOREQUIPMENT:ELECTRICITY" - not found.
   ** Warning ** Output:Meter: invalid Key Name="ELECTRIC_DRYER:INTERIOREQUIPMENT:ELECTRICITY" - not found.
   ** Warning ** Output:Meter: invalid Key Name="HEATRECOVERY:ELECTRICITY" - not found.
   ** Warning ** Output:Meter: invalid Key Name="HEATING:NATURALGAS" - not found.
   ** Warning ** Output:Meter: invalid Key Name="WATERSYSTEMS:NATURALGAS" - not found.
   ** Warning ** Output:Meter: invalid Key Name="PROPANE:FACILITY" - not found.
   ** Warning ** Output:Meter: invalid Key Name="HEATING:PROPANE" - not found.
   ************* Testing Individual Branch Integrity
   ************* All Branches passed integrity testing
   ************* Testing Individual Supply Air Path Integrity
   ************* All Supply Air Paths passed integrity testing
   ************* Testing Individual Return Air Path Integrity
   ************* All Return Air Paths passed integrity testing
   ************* No node connection errors were found.
   ************* Beginning Simulation
   ** Warning ** AirflowNetwork::Solver::validate_distribution: Heat pump water heater is simulated along with an AirflowNetwork but is not included in the AirflowNetwork.
   ** Warning ** CalcEquipmentFlowRates: "TOTAL HOT WATER LOAD" - Target water temperature is greater than the hot water temperature by (0.66 C)
   **   ~~~   **  Environment=EXTREME_WINTER, at Simulation time=12/22 03:45 - 04:00
   **   ~~~   ** ...target water temperature     = 53.33 C
   **   ~~~   ** ...hot water temperature        = 52.68 C
   **   ~~~   ** ...Target water temperature should be less than or equal to the hot water temperature. Verify temperature setpoints and schedules.
   ** Warning ** SimHVAC: Maximum iterations (20) exceeded for all HVAC loops, at EXTREME_WINTER, 01/04 13:30 - 13:45
   **   ~~~   ** The solution for one or more of the Air Loop HVAC systems did not appear to converge
   **   ~~~   ** Air System Named = CENTRAL SYSTEM did not converge for mass flow rate
   **   ~~~   ** Check values should be zero. Most Recent values listed first.
   **   ~~~   ** Demand-to-Supply interface mass flow rate check value iteration history trace: 5.842435E-002,5.842435E-002,5.842435E-002,5.842435E-002,5.842435E-002,5.842435E-002,5.842435E-002,5.842435E-002,5.842435E-002,5.842435E-002,
   **   ~~~   ** Supply-to-demand interface deck 1 mass flow rate check value iteration history trace: 5.842435E-002,5.842435E-002,5.842435E-002,5.842435E-002,5.842435E-002,5.842435E-002,5.842435E-002,5.842435E-002,5.842435E-002,5.842435E-002,
   **   ~~~   ** Air System Named = CENTRAL SYSTEM did not converge for energy
   **   ~~~   ** Check values should be zero. Most Recent values listed first.
   **   ~~~   ** Demand-to-Supply interface energy check value iteration history trace: 1157.721815,1157.721815,1157.721815,1157.721815,1157.721815,1157.721815,1157.721815,1157.721815,1157.721815,1157.721815,
   **   ~~~   ** Supply-to-demand interface deck 1 energy check value iteration history trace: 1977.393598,1977.393598,1977.393597,1977.393597,1977.393597,1977.393597,1977.393597,1977.393597,1977.393597,1977.393597,
   ** Warning ** SimHVAC: Maximum iterations (20) exceeded for all HVAC loops, at ANNUAL, 01/10 17:04 - 17:08
   **   ~~~   ** The solution for one or more of the Air Loop HVAC systems did not appear to converge
   **   ~~~   ** Air System Named = CENTRAL SYSTEM did not converge for mass flow rate
   **   ~~~   ** Check values should be zero. Most Recent values listed first.
   **   ~~~   ** Demand-to-Supply interface mass flow rate check value iteration history trace: 5.476723E-002,5.476723E-002,5.476723E-002,5.476723E-002,5.476723E-002,5.476723E-002,5.476723E-002,5.476723E-002,5.476723E-002,5.476723E-002,
   **   ~~~   ** Supply-to-demand interface deck 1 mass flow rate check value iteration history trace: 5.476723E-002,5.476723E-002,5.476723E-002,5.476723E-002,5.476723E-002,5.476723E-002,5.476723E-002,5.476723E-002,5.476723E-002,5.476723E-002,
   **   ~~~   ** Air System Named = CENTRAL SYSTEM did not converge for energy
   **   ~~~   ** Check values should be zero. Most Recent values listed first.
   **   ~~~   ** Demand-to-Supply interface energy check value iteration history trace: 1086.544331,1086.544331,1086.544331,1086.544331,1086.544331,1086.544331,1086.544331,1086.544331,1086.544331,1086.544331,
   **   ~~~   ** Supply-to-demand interface deck 1 energy check value iteration history trace: 1729.353277,1729.353276,1729.353276,1729.353276,1729.353276,1729.353276,1729.353276,1729.353276,1729.353276,1729.353276,
   ** Warning ** SimHVAC: Maximum iterations (20) exceeded for all HVAC loops, at ANNUAL, 01/25 10:15 - 10:30
   **   ~~~   ** The solution for one or more of the Air Loop HVAC systems did not appear to converge
   **   ~~~   ** Air System Named = CENTRAL SYSTEM did not converge for mass flow rate
   **   ~~~   ** Check values should be zero. Most Recent values listed first.
   **   ~~~   ** Demand-to-Supply interface mass flow rate check value iteration history trace: 5.625751E-002,5.625751E-002,5.625751E-002,5.625751E-002,5.625751E-002,5.625751E-002,5.625751E-002,5.625751E-002,5.625751E-002,5.625751E-002,
   **   ~~~   ** Supply-to-demand interface deck 1 mass flow rate check value iteration history trace: 5.625751E-002,5.625751E-002,5.625751E-002,5.625751E-002,5.625751E-002,5.625751E-002,5.625751E-002,5.625751E-002,5.625751E-002,5.625751E-002,
   **   ~~~   ** Air System Named = CENTRAL SYSTEM did not converge for energy
   **   ~~~   ** Check values should be zero. Most Recent values listed first.
   **   ~~~   ** Demand-to-Supply interface energy check value iteration history trace: 1114.857232,1114.857232,1114.857232,1114.857232,1114.857232,1114.857232,1114.857232,1114.857231,1114.857231,1114.857231,
   **   ~~~   ** Supply-to-demand interface deck 1 energy check value iteration history trace: 1872.976506,1872.976506,1872.976506,1872.976506,1872.976506,1872.976506,1872.976506,1872.976506,1872.976506,1872.976505,
   ** Warning ** SimHVAC: Maximum iterations (20) exceeded for all HVAC loops, at ANNUAL, 02/23 12:30 - 12:45
   **   ~~~   ** The solution for one or more of the Air Loop HVAC systems did not appear to converge
   **   ~~~   ** Air System Named = CENTRAL SYSTEM did not converge for mass flow rate
   **   ~~~   ** Check values should be zero. Most Recent values listed first.
   **   ~~~   ** Demand-to-Supply interface mass flow rate check value iteration history trace: 4.960006E-002,4.960006E-002,4.960006E-002,4.960006E-002,4.960006E-002,4.960006E-002,4.960006E-002,4.960006E-002,4.960006E-002,4.960006E-002,
   **   ~~~   ** Supply-to-demand interface deck 1 mass flow rate check value iteration history trace: 4.960006E-002,4.960006E-002,4.960006E-002,4.960006E-002,4.960006E-002,4.960006E-002,4.960006E-002,4.960006E-002,4.960006E-002,4.960006E-002,
   **   ~~~   ** Air System Named = CENTRAL SYSTEM did not converge for energy
   **   ~~~   ** Check values should be zero. Most Recent values listed first.
   **   ~~~   ** Demand-to-Supply interface energy check value iteration history trace: 982.632119,982.632119,982.632119,982.632119,982.632119,982.632119,982.632119,982.632119,982.632119,982.632119,
   **   ~~~   ** Supply-to-demand interface deck 1 energy check value iteration history trace: 1834.033913,1834.033913,1834.033913,1834.033913,1834.033913,1834.033913,1834.033913,1834.033912,1834.033912,1834.033912,
   ** Warning ** Temperature out of range [-100. to 200.] (PsyPsatFnTemp)
   **   ~~~   **  Routine=PsyTwbFnTdbWPb, Environment=ANNUAL, at Simulation time=03/14 12:45 - 13:00
   **   ~~~   **  Input Temperature=-1987.55
   ** Warning ** SimHVAC: Maximum iterations (20) exceeded for all HVAC loops, at ANNUAL, 03/16 08:45 - 09:00
   **   ~~~   ** The solution for one or more of the Air Loop HVAC systems did not appear to converge
   **   ~~~   ** Air System Named = CENTRAL SYSTEM did not converge for mass flow rate
   **   ~~~   ** Check values should be zero. Most Recent values listed first.
   **   ~~~   ** Demand-to-Supply interface mass flow rate check value iteration history trace: 4.255805E-002,4.255805E-002,4.255805E-002,4.255805E-002,4.255805E-002,4.255805E-002,4.255805E-002,4.255805E-002,4.255805E-002,4.255805E-002,
   **   ~~~   ** Supply-to-demand interface deck 1 mass flow rate check value iteration history trace: 4.255805E-002,4.255805E-002,4.255805E-002,4.255805E-002,4.255805E-002,4.255805E-002,4.255805E-002,4.255805E-002,4.255805E-002,4.255805E-002,
   **   ~~~   ** Air System Named = CENTRAL SYSTEM did not converge for energy
   **   ~~~   ** Check values should be zero. Most Recent values listed first.
   **   ~~~   ** Demand-to-Supply interface energy check value iteration history trace: 843.378375,843.378375,843.378375,843.378375,843.378375,843.378375,843.378374,843.378374,843.378374,843.378374,
   **   ~~~   ** Supply-to-demand interface deck 1 energy check value iteration history trace: 1670.935252,1670.935252,1670.935252,1670.935252,1670.935252,1670.935252,1670.935252,1670.935252,1670.935252,1670.935252,
   ** Warning ** SimHVAC: Maximum iterations (20) exceeded for all HVAC loops, at ANNUAL, 03/18 08:48 - 08:51
   **   ~~~   ** The solution for one or more of the Air Loop HVAC systems did not appear to converge
   **   ~~~   ** Air System Named = CENTRAL SYSTEM did not converge for mass flow rate
   **   ~~~   ** Check values should be zero. Most Recent values listed first.
   **   ~~~   ** Demand-to-Supply interface mass flow rate check value iteration history trace: 3.340939E-002,3.340939E-002,3.340939E-002,3.340939E-002,3.340939E-002,3.340939E-002,3.340939E-002,3.340939E-002,3.340939E-002,3.340939E-002,
   **   ~~~   ** Supply-to-demand interface deck 1 mass flow rate check value iteration history trace: 3.340939E-002,3.340939E-002,3.340939E-002,3.340939E-002,3.340939E-002,3.340939E-002,3.340939E-002,3.340939E-002,3.340939E-002,3.340939E-002,
   **   ~~~   ** Air System Named = CENTRAL SYSTEM did not converge for energy
   **   ~~~   ** Check values should be zero. Most Recent values listed first.
   **   ~~~   ** Demand-to-Supply interface energy check value iteration history trace: 660.245657,660.245657,660.245657,660.245657,660.245657,660.245657,660.245657,660.245657,660.245657,660.245657,
   **   ~~~   ** Supply-to-demand interface deck 1 energy check value iteration history trace: 1262.425462,1262.425462,1262.425462,1262.425462,1262.425462,1262.425462,1262.425462,1262.425462,1262.425462,1262.425462,
   ** Warning ** SimHVAC: Maximum iterations (20) exceeded for all HVAC loops, at ANNUAL, 03/23 18:30 - 18:45
   **   ~~~   ** The solution for one or more of the Air Loop HVAC systems did not appear to converge
   **   ~~~   ** Air System Named = CENTRAL SYSTEM did not converge for mass flow rate
   **   ~~~   ** Check values should be zero. Most Recent values listed first.
   **   ~~~   ** Demand-to-Supply interface mass flow rate check value iteration history trace: 4.526916E-002,4.526916E-002,4.526916E-002,4.526916E-002,4.526916E-002,4.526916E-002,4.526916E-002,4.526916E-002,4.526916E-002,4.526916E-002,
   **   ~~~   ** Supply-to-demand interface deck 1 mass flow rate check value iteration history trace: 4.526916E-002,4.526916E-002,4.526916E-002,4.526916E-002,4.526916E-002,4.526916E-002,4.526916E-002,4.526916E-002,4.526916E-002,4.526916E-002,
   **   ~~~   ** Air System Named = CENTRAL SYSTEM did not converge for energy
   **   ~~~   ** Check values should be zero. Most Recent values listed first.
   **   ~~~   ** Demand-to-Supply interface energy check value iteration history trace: 892.060235,892.060235,892.060235,892.060235,892.060235,892.060235,892.060235,892.060235,892.060235,892.060235,
   **   ~~~   ** Supply-to-demand interface deck 1 energy check value iteration history trace: 1449.630425,1449.630425,1449.630425,1449.630424,1449.630424,1449.630424,1449.630424,1449.630424,1449.630424,1449.630424,
   ** Warning ** SimHVAC: Maximum iterations (20) exceeded for all HVAC loops, at ANNUAL, 03/27 01:53 - 02:00
   **   ~~~   ** The solution for one or more of the Air Loop HVAC systems did not appear to converge
   **   ~~~   ** Air System Named = CENTRAL SYSTEM did not converge for mass flow rate
   **   ~~~   ** Check values should be zero. Most Recent values listed first.
   **   ~~~   ** Demand-to-Supply interface mass flow rate check value iteration history trace: 4.403199E-002,4.403199E-002,4.403199E-002,4.403199E-002,4.403199E-002,4.403199E-002,4.403199E-002,4.403199E-002,4.403199E-002,4.403199E-002,
   **   ~~~   ** Supply-to-demand interface deck 1 mass flow rate check value iteration history trace: 4.403199E-002,4.403199E-002,4.403199E-002,4.403199E-002,4.403199E-002,4.403199E-002,4.403199E-002,4.403199E-002,4.403199E-002,4.403199E-002,
   **   ~~~   ** Air System Named = CENTRAL SYSTEM did not converge for energy
   **   ~~~   ** Check values should be zero. Most Recent values listed first.
   **   ~~~   ** Demand-to-Supply interface energy check value iteration history trace: 822.569726,822.569726,822.569726,822.569726,822.569726,822.569726,822.569726,822.569726,822.569726,822.569726,
   **   ~~~   ** Supply-to-demand interface deck 1 energy check value iteration history trace: 1391.472151,1391.472151,1391.472151,1391.472151,1391.472151,1391.472151,1391.472151,1391.472151,1391.472151,1391.472151,
   ** Warning ** SimHVAC: Maximum iterations (20) exceeded for all HVAC loops, at ANNUAL, 04/05 09:28 - 09:30
   **   ~~~   ** The solution for one or more of the Air Loop HVAC systems did not appear to converge
   **   ~~~   ** Air System Named = CENTRAL SYSTEM did not converge for mass flow rate
   **   ~~~   ** Check values should be zero. Most Recent values listed first.
   **   ~~~   ** Demand-to-Supply interface mass flow rate check value iteration history trace: 4.076678E-002,4.076678E-002,4.076678E-002,4.076678E-002,4.076678E-002,4.076678E-002,4.076678E-002,4.076678E-002,4.076678E-002,4.076678E-002,
   **   ~~~   ** Supply-to-demand interface deck 1 mass flow rate check value iteration history trace: 4.076678E-002,4.076678E-002,4.076678E-002,4.076678E-002,4.076678E-002,4.076678E-002,4.076678E-002,4.076678E-002,4.076678E-002,4.076678E-002,
   **   ~~~   ** Air System Named = CENTRAL SYSTEM did not converge for energy
   **   ~~~   ** Check values should be zero. Most Recent values listed first.
   **   ~~~   ** Demand-to-Supply interface energy check value iteration history trace: 805.156555,805.156555,805.156555,805.156555,805.156555,805.156555,805.156554,805.156554,805.156554,805.156554,
   **   ~~~   ** Supply-to-demand interface deck 1 energy check value iteration history trace: 1629.851789,1629.851789,1629.851789,1629.851789,1629.851789,1629.851789,1629.851789,1629.851789,1629.851789,1629.851789,
   ** Warning ** SimHVAC: Maximum iterations (20) exceeded for all HVAC loops, at ANNUAL, 04/19 10:02 - 10:03
   **   ~~~   ** The solution for one or more of the Air Loop HVAC systems did not appear to converge
   **   ~~~   ** Air System Named = CENTRAL SYSTEM did not converge for mass flow rate
   **   ~~~   ** Check values should be zero. Most Recent values listed first.
   **   ~~~   ** Demand-to-Supply interface mass flow rate check value iteration history trace: 4.135925E-002,4.135925E-002,4.135925E-002,4.135925E-002,4.135925E-002,4.135925E-002,4.135925E-002,4.135925E-002,4.135925E-002,4.135925E-002,
   **   ~~~   ** Supply-to-demand interface deck 1 mass flow rate check value iteration history trace: 4.135925E-002,4.135925E-002,4.135925E-002,4.135925E-002,4.135925E-002,4.135925E-002,4.135925E-002,4.135925E-002,4.135925E-002,4.135925E-002,
   **   ~~~   ** Air System Named = CENTRAL SYSTEM did not converge for energy
   **   ~~~   ** Check values should be zero. Most Recent values listed first.
   **   ~~~   ** Demand-to-Supply interface energy check value iteration history trace: 818.004890,818.004890,818.004890,818.004890,818.004890,818.004890,818.004890,818.004890,818.004890,818.004890,
   **   ~~~   ** Supply-to-demand interface deck 1 energy check value iteration history trace: 1524.426463,1524.426463,1524.426463,1524.426463,1524.426463,1524.426463,1524.426463,1524.426463,1524.426463,1524.426463,
   ** Warning ** SimHVAC: Maximum iterations (20) exceeded for all HVAC loops, at ANNUAL, 05/05 03:30 - 03:45
   **   ~~~   ** The solution for one or more of the Air Loop HVAC systems did not appear to converge
   **   ~~~   ** Air System Named = CENTRAL SYSTEM did not converge for mass flow rate
   **   ~~~   ** Check values should be zero. Most Recent values listed first.
   **   ~~~   ** Demand-to-Supply interface mass flow rate check value iteration history trace: 3.300460E-002,3.300460E-002,3.300460E-002,3.300460E-002,3.300460E-002,3.300460E-002,3.300460E-002,3.300460E-002,3.300460E-002,3.300460E-002,
   **   ~~~   ** Supply-to-demand interface deck 1 mass flow rate check value iteration history trace: 3.300460E-002,3.300460E-002,3.300460E-002,3.300460E-002,3.300460E-002,3.300460E-002,3.300460E-002,3.300460E-002,3.300460E-002,3.300460E-002,
   **   ~~~   ** Air System Named = CENTRAL SYSTEM did not converge for energy
   **   ~~~   ** Check values should be zero. Most Recent values listed first.
   **   ~~~   ** Demand-to-Supply interface energy check value iteration history trace: 610.482316,610.482316,610.482316,610.482316,610.482316,610.482316,610.482316,610.482316,610.482316,610.482316,
   **   ~~~   ** Supply-to-demand interface deck 1 energy check value iteration history trace: 1203.809007,1203.809007,1203.809007,1203.809007,1203.809007,1203.809007,1203.809007,1203.809007,1203.809007,1203.809007,
   ** Warning ** SimHVAC: Maximum iterations (20) exceeded for all HVAC loops, at ANNUAL, 10/29 08:15 - 08:18
   **   ~~~   ** The solution for one or more of the Air Loop HVAC systems did not appear to converge
   **   ~~~   ** Air System Named = CENTRAL SYSTEM did not converge for mass flow rate
   **   ~~~   ** Check values should be zero. Most Recent values listed first.
   **   ~~~   ** Demand-to-Supply interface mass flow rate check value iteration history trace: 6.044220E-002,6.044220E-002,6.044220E-002,6.044220E-002,6.044220E-002,6.044220E-002,6.044220E-002,6.044220E-002,6.044220E-002,6.044220E-002,
   **   ~~~   ** Supply-to-demand interface deck 1 mass flow rate check value iteration history trace: 6.044220E-002,6.044220E-002,6.044220E-002,6.044220E-002,6.044220E-002,6.044220E-002,6.044220E-002,6.044220E-002,6.044220E-002,6.044220E-002,
   **   ~~~   ** Air System Named = CENTRAL SYSTEM did not converge for energy
   **   ~~~   ** Check values should be zero. Most Recent values listed first.
   **   ~~~   ** Demand-to-Supply interface energy check value iteration history trace: 1197.726160,1197.726160,1197.726160,1197.726160,1197.726160,1197.726160,1197.726159,1197.726159,1197.726159,1197.726159,
   **   ~~~   ** Supply-to-demand interface deck 1 energy check value iteration history trace: 1960.818916,1960.818916,1960.818916,1960.818916,1960.818916,1960.818916,1960.818916,1960.818916,1960.818915,1960.818915,
   ** Warning ** SimHVAC: Maximum iterations (20) exceeded for all HVAC loops, at ANNUAL, 11/09 09:30 - 09:34
   **   ~~~   ** The solution for one or more of the Air Loop HVAC systems did not appear to converge
   **   ~~~   ** Air System Named = CENTRAL SYSTEM did not converge for mass flow rate
   **   ~~~   ** Check values should be zero. Most Recent values listed first.
   **   ~~~   ** Demand-to-Supply interface mass flow rate check value iteration history trace: 3.764343E-002,3.764343E-002,3.764343E-002,3.764343E-002,3.764343E-002,3.764343E-002,3.764343E-002,3.764343E-002,3.764343E-002,3.764343E-002,
   **   ~~~   ** Supply-to-demand interface deck 1 mass flow rate check value iteration history trace: 3.764343E-002,3.764343E-002,3.764343E-002,3.764343E-002,3.764343E-002,3.764343E-002,3.764343E-002,3.764343E-002,3.764343E-002,3.764343E-002,
   **   ~~~   ** Air System Named = CENTRAL SYSTEM did not converge for energy
   **   ~~~   ** Check values should be zero. Most Recent values listed first.
   **   ~~~   ** Demand-to-Supply interface energy check value iteration history trace: 745.969453,745.969452,745.969452,745.969452,745.969452,745.969452,745.969452,745.969452,745.969452,745.969452,
   **   ~~~   ** Supply-to-demand interface deck 1 energy check value iteration history trace: 1448.165383,1448.165383,1448.165383,1448.165383,1448.165383,1448.165383,1448.165383,1448.165383,1448.165383,1448.165382,
   ** Warning ** SimHVAC: Maximum iterations (20) exceeded for all HVAC loops, at ANNUAL, 11/15 23:35 - 23:40
   **   ~~~   ** The solution for one or more of the Air Loop HVAC systems did not appear to converge
   **   ~~~   ** Air System Named = CENTRAL SYSTEM did not converge for mass flow rate
   **   ~~~   ** Check values should be zero. Most Recent values listed first.
   **   ~~~   ** Demand-to-Supply interface mass flow rate check value iteration history trace: 5.068494E-002,5.068494E-002,5.068494E-002,5.068494E-002,5.068494E-002,5.068494E-002,5.068494E-002,5.068494E-002,5.068494E-002,5.068494E-002,
   **   ~~~   ** Supply-to-demand interface deck 1 mass flow rate check value iteration history trace: 5.068494E-002,5.068494E-002,5.068494E-002,5.068494E-002,5.068494E-002,5.068494E-002,5.068494E-002,5.068494E-002,5.068494E-002,5.068494E-002,
   **   ~~~   ** Air System Named = CENTRAL SYSTEM did not converge for energy
   **   ~~~   ** Check values should be zero. Most Recent values listed first.
   **   ~~~   ** Demand-to-Supply interface energy check value iteration history trace: 946.768549,946.768549,946.768549,946.768549,946.768549,946.768549,946.768549,946.768549,946.768549,946.768549,
   **   ~~~   ** Supply-to-demand interface deck 1 energy check value iteration history trace: 1547.814523,1547.814523,1547.814523,1547.814523,1547.814523,1547.814523,1547.814523,1547.814523,1547.814523,1547.814523,
   ************* Simulation Error Summary *************
   ** Warning ** The following Report Variables were requested but not generated -- check.rdd file
   **   ~~~   ** Either the IDF did not contain these elements, the variable name is misspelled,
   **   ~~~   ** or the requested variable is an advanced output which requires Output : Diagnostics, DisplayAdvancedReportVariables;
   ************* Key=*, VarName=BASEBOARD TOTAL HEATING ENERGY, Frequency=
   ************* Key=*, VarName=WATER HEATER NATURALGAS ENERGY, Frequency=
   ************* Key=*, VarName=COOLING COIL TOTAL HEATING ENERGY, Frequency=
   ************* There are 34 unused schedules in input.
   ************* There are 388 unused week schedules in input.
   ************* There are 396 unused day schedules in input.
   ************* Use Output:Diagnostics,DisplayUnusedSchedules; to see them.
   *************
   ************* ===== Recurring Error Summary =====
   ************* The following recurring error messages occurred.
   *************
   *************  ** Warning ** "TOTAL HOT WATER LOAD" - Target water temperature should be less than or equal to the hot water temperature error continues...
   *************  **   ~~~   **   This error occurred 74219 total times;
   *************  **   ~~~   **   during Warmup 0 times;
   *************  **   ~~~   **   during Sizing 0 times.
   *************  **   ~~~   **   Max=6.316821  Min=3.630830E-004
   *************
   *************  ** Warning ** Temperature out of range [-100. to 200.] (PsyPsatFnTemp)
   *************  **   ~~~   **   This error occurred 5 total times;
   *************  **   ~~~   **   during Warmup 0 times;
   *************  **   ~~~   **   during Sizing 0 times.
   *************  **   ~~~   **   Max=-125.659176 C  Min=-1987.550842 C
   *************
   *************  ** Warning ** SimHVAC: Exceeding Maximum iterations for all HVAC loops, during ANNUAL continues
   *************  **   ~~~   **   This error occurred 8 total times;
   *************  **   ~~~   **   during Warmup 0 times;
   *************  **   ~~~   **   during Sizing 0 times.
   *************
   *************
   ************* ===== Final Error Summary =====
   ************* The following error categories occurred.  Consider correcting or noting.
   ************* Nominally Unused Constructions
   ************* ..The nominally unused constructions warning is provided to alert you to potential conditions that can cause
   ************* ..extra time during simulation. Each construction is calculated by the algorithm indicated in the HeatBalanceAlgorithm
   ************* ..object. You may remove the constructions indicated (when you use the DisplayExtraWarnings option).
   *************
   ************* EnergyPlus Warmup Error Summary. During Warmup: 1 Warning; 0 Severe Errors.
   ************* EnergyPlus Sizing Error Summary. During Sizing: 4 Warning; 0 Severe Errors.
   ************* EnergyPlus Completed Successfully-- 74264 Warning; 0 Severe Errors; Elapsed Time=00hr 01min 47.23sec
