Program Version,EnergyPlus, Version 22.2.0-c249759bad, YMD=2023.09.01 20:08,
   ************* Beginning Zone Sizing Calculations
   ** Warning ** ProcessScheduleInput: Schedule:Constant="ALWAYS ON DISCRETE", Schedule Type Limits Name="ONOFF" not found -- will not be validated
   ** Warning ** Foundation:Kiva="KIVA FOUNDATION", no Interior Horizontal Insulation Material Name defined
   **   ~~~   ** Interior Horizontal Insulation Depth will not be used.
   ** Warning ** CheckUsedConstructions: There are 15 nominally unused constructions in input.
   **   ~~~   ** Each Unused construction is shown.
   ************* Construction=INTERIOR FLOOR
   ************* Construction=INTERIOR WINDOW
   ************* Construction=EXTERIOR DOOR
   ************* Construction=INTERIOR DOOR
   ************* Construction=GABLE CONSTRUCTION
   ************* Construction=CRAWL_FLOOR
   ************* Construction=INSULATED PIPE
   ************* Construction=PLAIN PIPE
   ************* Construction=TDD PIPE
   ************* Construction=TDD DOME
   ************* Construction=TDD DIFFUSER
   ************* Construction=CRAWL WALL
   ************* Construction=CEILING-FLOOR-LAYER
   ************* Construction=SLAB CONSTRUCTION W FULL R10 INSULATION
   ************* Construction=SLAB CONSTRUCTION W FULL R5 INSULATION
   ** Warning ** GetDXCoils: Coil:Heating:DX:SingleSpeed="DX_HEATING_COIL" curve values
   **   ~~~   ** ... Defrost Energy Input Ratio Function of Temperature Curve Name = DEFROSTEIR output is not equal to 1.0 (+ or - 10%) at rated conditions.
   **   ~~~   ** ... Curve output at rated conditions = 0.152
   ************* Beginning System Sizing Calculations
   ************* Beginning Plant Sizing Calculations
   ** Warning ** SizeDXCoil Coil:Cooling:DX:SingleSpeed DX_COOLING_COIL
   **   ~~~   ** ...Gross Rated Total Cooling Capacity [W] will be limited by the maximum rated volume flow per rated total capacity ratio.
   **   ~~~   ** ...DX coil volume flow rate ( m3/s ) = 0.500352
   **   ~~~   ** ...Requested capacity ( W ) = 6792.892
   **   ~~~   ** ...Requested flow/capacity ratio ( m3/s/W ) = 7.365E-005
   **   ~~~   ** ...Maximum flow/capacity ratio ( m3/s/W ) = 6.041E-005
   **   ~~~   ** ...Adjusted capacity ( W ) = 8282.612
   ** Warning ** Coil:WaterHeating:AirToWaterHeatPump:Wrapped "HEAT PUMP WATER HEATER EVAPORATOR": Rated air volume flow rate per watt of rated total water heating capacity is out of range
   **   ~~~   ** Min Rated Vol Flow Per Watt=[4.027E-005], Rated Vol Flow Per Watt=[1.510E-004], Max Rated Vol Flow Per Watt=[8.056E-005]. See Input-Output Reference Manual for valid range.
   ************* SizeFan: : Potential issue with equipment sizing for Fan:OnOff HEAT PUMP WATER HEATER FAN
   **   ~~~   ** User-Specified Maximum Flow Rate [m3/s] = 0.22653
   **   ~~~   ** differs from Design Size Maximum Flow Rate [m3/s] = 7.55250E-002
   **   ~~~   ** This may, or may not, indicate mismatched component sizes.
   **   ~~~   ** Verify that the value entered is intended and is consistent with other components.
   ** Warning ** Water heater = WATER HEATER TANK:  Recovery Efficiency and Energy Factor could not be calculated during the test for standard ratings
   **   ~~~   ** Setpoint was never recovered and/or heater never turned on
   ** Warning ** Check input. Pump nominal power or motor efficiency is set to 0, for pump=MAINS PRESSURE
   ** Warning ** Output:Meter: invalid Key Name="ELECTRIC_RANGE:INTERIOREQUIPMENT:ELECTRICITY" - not found.
   ** Warning ** Output:Meter: invalid Key Name="ELECTRIC_DRYER:INTERIOREQUIPMENT:ELECTRICITY" - not found.
   ** Warning ** Output:Meter: invalid Key Name="HEATRECOVERY:ELECTRICITY" - not found.
   ** Warning ** Output:Meter: invalid Key Name="HEATING:NATURALGAS" - not found.
   ** Warning ** Output:Meter: invalid Key Name="WATERSYSTEMS:NATURALGAS" - not found.
   ** Warning ** Output:Meter: invalid Key Name="PROPANE:FACILITY" - not found.
   ** Warning ** Output:Meter: invalid Key Name="HEATING:PROPANE" - not found.
   ************* Testing Individual Branch Integrity
   ************* All Branches passed integrity testing
   ************* Testing Individual Supply Air Path Integrity
   ************* All Supply Air Paths passed integrity testing
   ************* Testing Individual Return Air Path Integrity
   ************* All Return Air Paths passed integrity testing
   ************* No node connection errors were found.
   ************* Beginning Simulation
   ** Warning ** AirflowNetwork::Solver::validate_distribution: Heat pump water heater is simulated along with an AirflowNetwork but is not included in the AirflowNetwork.
   ** Warning ** CalcEquipmentFlowRates: "TOTAL HOT WATER LOAD" - Target water temperature is greater than the hot water temperature by (4.36 C)
   **   ~~~   **  Environment=EXTREME_WINTER, at Simulation time=12/22 07:00 - 07:15
   **   ~~~   ** ...target water temperature     = 53.33 C
   **   ~~~   ** ...hot water temperature        = 48.98 C
   **   ~~~   ** ...Target water temperature should be less than or equal to the hot water temperature. Verify temperature setpoints and schedules.
   ** Warning ** SimHVAC: Maximum iterations (20) exceeded for all HVAC loops, at EXTREME_WINTER, 12/28 12:00 - 12:15
   **   ~~~   ** The solution for one or more of the Air Loop HVAC systems did not appear to converge
   **   ~~~   ** Air System Named = CENTRAL SYSTEM did not converge for mass flow rate
   **   ~~~   ** Check values should be zero. Most Recent values listed first.
   **   ~~~   ** Demand-to-Supply interface mass flow rate check value iteration history trace: 8.344434E-002,8.344434E-002,8.344434E-002,8.344434E-002,8.344434E-002,8.344434E-002,8.344434E-002,8.344434E-002,8.344434E-002,8.344434E-002,
   **   ~~~   ** Supply-to-demand interface deck 1 mass flow rate check value iteration history trace: 8.344434E-002,8.344434E-002,8.344434E-002,8.344434E-002,8.344434E-002,8.344434E-002,8.344434E-002,8.344434E-002,8.344434E-002,8.344434E-002,
   **   ~~~   ** Air System Named = CENTRAL SYSTEM did not converge for energy
   **   ~~~   ** Check values should be zero. Most Recent values listed first.
   **   ~~~   ** Demand-to-Supply interface energy check value iteration history trace: 1651.927411,1651.927410,1651.927410,1651.927410,1651.927410,1651.927410,1651.927410,1651.927410,1651.927410,1651.927410,
   **   ~~~   ** Supply-to-demand interface deck 1 energy check value iteration history trace: 2587.454007,2587.454007,2587.454006,2587.454006,2587.454006,2587.454006,2587.454006,2587.454006,2587.454005,2587.454005,
   ** Warning ** SimHVAC: Maximum iterations (20) exceeded for all HVAC loops, at EXTREME_WINTER, 12/30 14:45 - 15:00
   **   ~~~   ** The solution for one or more of the Air Loop HVAC systems did not appear to converge
   **   ~~~   ** Air System Named = CENTRAL SYSTEM did not converge for mass flow rate
   **   ~~~   ** Check values should be zero. Most Recent values listed first.
   **   ~~~   ** Demand-to-Supply interface mass flow rate check value iteration history trace: 7.058400E-002,7.058400E-002,7.058400E-002,7.058400E-002,7.058400E-002,7.058400E-002,7.058400E-002,7.058400E-002,7.058400E-002,7.058400E-002,
   **   ~~~   ** Supply-to-demand interface deck 1 mass flow rate check value iteration history trace: 7.058400E-002,7.058400E-002,7.058400E-002,7.058400E-002,7.058400E-002,7.058400E-002,7.058400E-002,7.058400E-002,7.058400E-002,7.058400E-002,
   **   ~~~   ** Air System Named = CENTRAL SYSTEM did not converge for energy
   **   ~~~   ** Check values should be zero. Most Recent values listed first.
   **   ~~~   ** Demand-to-Supply interface energy check value iteration history trace: 1392.292623,1392.292623,1392.292622,1392.292622,1392.292622,1392.292622,1392.292622,1392.292622,1392.292622,1392.292622,
   **   ~~~   ** Supply-to-demand interface deck 1 energy check value iteration history trace: 2165.917802,2165.917802,2165.917802,2165.917801,2165.917801,2165.917801,2165.917801,2165.917801,2165.917801,2165.917801,
   ** Warning ** SimHVAC: Maximum iterations (20) exceeded for all HVAC loops, at EXTREME_WINTER, 01/05 22:00 - 22:15
   **   ~~~   ** The solution for one or more of the Air Loop HVAC systems did not appear to converge
   **   ~~~   ** Air System Named = CENTRAL SYSTEM did not converge for mass flow rate
   **   ~~~   ** Check values should be zero. Most Recent values listed first.
   **   ~~~   ** Demand-to-Supply interface mass flow rate check value iteration history trace: 0.107439,0.107439,0.107439,0.107439,0.107439,0.107439,0.107439,0.107439,0.107439,0.107439,
   **   ~~~   ** Supply-to-demand interface deck 1 mass flow rate check value iteration history trace: 0.107439,0.107439,0.107439,0.107439,0.107439,0.107439,0.107439,0.107439,0.107439,0.107439,
   **   ~~~   ** Air System Named = CENTRAL SYSTEM did not converge for energy
   **   ~~~   ** Check values should be zero. Most Recent values listed first.
   **   ~~~   ** Demand-to-Supply interface energy check value iteration history trace: 2127.382529,2127.382529,2127.382529,2127.382529,2127.382529,2127.382528,2127.382528,2127.382528,2127.382528,2127.382528,
   **   ~~~   ** Supply-to-demand interface deck 1 energy check value iteration history trace: 3142.483911,3142.483911,3142.483910,3142.483910,3142.483910,3142.483910,3142.483909,3142.483909,3142.483909,3142.483909,
   ** Warning ** SimHVAC: Maximum iterations (20) exceeded for all HVAC loops, at ANNUAL, 01/10 11:53 - 12:00
   **   ~~~   ** The solution for one or more of the Air Loop HVAC systems did not appear to converge
   **   ~~~   ** Air System Named = CENTRAL SYSTEM did not converge for mass flow rate
   **   ~~~   ** Check values should be zero. Most Recent values listed first.
   **   ~~~   ** Demand-to-Supply interface mass flow rate check value iteration history trace: 9.003245E-002,9.003245E-002,9.003245E-002,9.003245E-002,9.003245E-002,9.003245E-002,9.003245E-002,9.003245E-002,9.003245E-002,9.003245E-002,
   **   ~~~   ** Supply-to-demand interface deck 1 mass flow rate check value iteration history trace: 9.003245E-002,9.003245E-002,9.003245E-002,9.003245E-002,9.003245E-002,9.003245E-002,9.003245E-002,9.003245E-002,9.003245E-002,9.003245E-002,
   **   ~~~   ** Air System Named = CENTRAL SYSTEM did not converge for energy
   **   ~~~   ** Check values should be zero. Most Recent values listed first.
   **   ~~~   ** Demand-to-Supply interface energy check value iteration history trace: 1773.829302,1773.829302,1773.829301,1773.829301,1773.829301,1773.829301,1773.829301,1773.829301,1773.829301,1773.829301,
   **   ~~~   ** Supply-to-demand interface deck 1 energy check value iteration history trace: 2825.387586,2825.387586,2825.387586,2825.387586,2825.387586,2825.387585,2825.387585,2825.387585,2825.387585,2825.387585,
   ** Warning ** SimHVAC: Maximum iterations (20) exceeded for all HVAC loops, at ANNUAL, 01/11 12:15 - 12:30
   **   ~~~   ** The solution for one or more of the Air Loop HVAC systems did not appear to converge
   **   ~~~   ** Air System Named = CENTRAL SYSTEM did not converge for mass flow rate
   **   ~~~   ** Check values should be zero. Most Recent values listed first.
   **   ~~~   ** Demand-to-Supply interface mass flow rate check value iteration history trace: 6.075081E-002,6.075081E-002,6.075081E-002,6.075081E-002,6.075081E-002,6.075081E-002,6.075081E-002,6.075081E-002,6.075081E-002,6.075081E-002,
   **   ~~~   ** Supply-to-demand interface deck 1 mass flow rate check value iteration history trace: 6.075081E-002,6.075081E-002,6.075081E-002,6.075081E-002,6.075081E-002,6.075081E-002,6.075081E-002,6.075081E-002,6.075081E-002,6.075081E-002,
   **   ~~~   ** Air System Named = CENTRAL SYSTEM did not converge for energy
   **   ~~~   ** Check values should be zero. Most Recent values listed first.
   **   ~~~   ** Demand-to-Supply interface energy check value iteration history trace: 1203.829184,1203.829184,1203.829184,1203.829184,1203.829184,1203.829184,1203.829184,1203.829183,1203.829183,1203.829183,
   **   ~~~   ** Supply-to-demand interface deck 1 energy check value iteration history trace: 2099.821491,2099.821491,2099.821491,2099.821491,2099.821491,2099.821491,2099.821490,2099.821490,2099.821490,2099.821490,
   ** Warning ** SimHVAC: Maximum iterations (20) exceeded for all HVAC loops, at ANNUAL, 01/23 12:00 - 12:08
   **   ~~~   ** The solution for one or more of the Air Loop HVAC systems did not appear to converge
   **   ~~~   ** Air System Named = CENTRAL SYSTEM did not converge for mass flow rate
   **   ~~~   ** Check values should be zero. Most Recent values listed first.
   **   ~~~   ** Demand-to-Supply interface mass flow rate check value iteration history trace: 5.937153E-002,5.937153E-002,5.937153E-002,5.937153E-002,5.937153E-002,5.937153E-002,5.937153E-002,5.937153E-002,5.937153E-002,5.937153E-002,
   **   ~~~   ** Supply-to-demand interface deck 1 mass flow rate check value iteration history trace: 5.937153E-002,5.937153E-002,5.937153E-002,5.937153E-002,5.937153E-002,5.937153E-002,5.937153E-002,5.937153E-002,5.937153E-002,5.937153E-002,
   **   ~~~   ** Air System Named = CENTRAL SYSTEM did not converge for energy
   **   ~~~   ** Check values should be zero. Most Recent values listed first.
   **   ~~~   ** Demand-to-Supply interface energy check value iteration history trace: 1178.966772,1178.966772,1178.966772,1178.966772,1178.966772,1178.966772,1178.966772,1178.966772,1178.966772,1178.966772,
   **   ~~~   ** Supply-to-demand interface deck 1 energy check value iteration history trace: 2061.167128,2061.167128,2061.167128,2061.167128,2061.167128,2061.167128,2061.167128,2061.167128,2061.167127,2061.167127,
   ** Warning ** SimHVAC: Maximum iterations (20) exceeded for all HVAC loops, at ANNUAL, 01/24 12:30 - 12:45
   **   ~~~   ** The solution for one or more of the Air Loop HVAC systems did not appear to converge
   **   ~~~   ** Air System Named = CENTRAL SYSTEM did not converge for mass flow rate
   **   ~~~   ** Check values should be zero. Most Recent values listed first.
   **   ~~~   ** Demand-to-Supply interface mass flow rate check value iteration history trace: 6.459665E-002,6.459665E-002,6.459665E-002,6.459665E-002,6.459665E-002,6.459665E-002,6.459665E-002,6.459665E-002,6.459665E-002,6.459665E-002,
   **   ~~~   ** Supply-to-demand interface deck 1 mass flow rate check value iteration history trace: 6.459665E-002,6.459665E-002,6.459665E-002,6.459665E-002,6.459665E-002,6.459665E-002,6.459665E-002,6.459665E-002,6.459665E-002,6.459665E-002,
   **   ~~~   ** Air System Named = CENTRAL SYSTEM did not converge for energy
   **   ~~~   ** Check values should be zero. Most Recent values listed first.
   **   ~~~   ** Demand-to-Supply interface energy check value iteration history trace: 1280.881445,1280.881445,1280.881445,1280.881445,1280.881445,1280.881445,1280.881445,1280.881445,1280.881445,1280.881445,
   **   ~~~   ** Supply-to-demand interface deck 1 energy check value iteration history trace: 2279.158600,2279.158600,2279.158600,2279.158600,2279.158600,2279.158600,2279.158600,2279.158599,2279.158599,2279.158599,
   ** Warning ** SimHVAC: Maximum iterations (20) exceeded for all HVAC loops, at ANNUAL, 01/29 13:00 - 13:08
   **   ~~~   ** The solution for one or more of the Air Loop HVAC systems did not appear to converge
   **   ~~~   ** Air System Named = CENTRAL SYSTEM did not converge for mass flow rate
   **   ~~~   ** Check values should be zero. Most Recent values listed first.
   **   ~~~   ** Demand-to-Supply interface mass flow rate check value iteration history trace: 5.949156E-002,5.949156E-002,5.949156E-002,5.949156E-002,5.949156E-002,5.949156E-002,5.949156E-002,5.949156E-002,5.949156E-002,5.949156E-002,
   **   ~~~   ** Supply-to-demand interface deck 1 mass flow rate check value iteration history trace: 5.949156E-002,5.949156E-002,5.949156E-002,5.949156E-002,5.949156E-002,5.949156E-002,5.949156E-002,5.949156E-002,5.949156E-002,5.949156E-002,
   **   ~~~   ** Air System Named = CENTRAL SYSTEM did not converge for energy
   **   ~~~   ** Check values should be zero. Most Recent values listed first.
   **   ~~~   ** Demand-to-Supply interface energy check value iteration history trace: 1178.934607,1178.934607,1178.934607,1178.934606,1178.934606,1178.934606,1178.934606,1178.934606,1178.934606,1178.934606,
   **   ~~~   ** Supply-to-demand interface deck 1 energy check value iteration history trace: 2060.029934,2060.029933,2060.029933,2060.029933,2060.029933,2060.029933,2060.029933,2060.029933,2060.029933,2060.029933,
   ** Warning ** SimHVAC: Maximum iterations (20) exceeded for all HVAC loops, at ANNUAL, 01/31 12:49 - 12:52
   **   ~~~   ** The solution for one or more of the Air Loop HVAC systems did not appear to converge
   **   ~~~   ** Air System Named = CENTRAL SYSTEM did not converge for mass flow rate
   **   ~~~   ** Check values should be zero. Most Recent values listed first.
   **   ~~~   ** Demand-to-Supply interface mass flow rate check value iteration history trace: 8.527827E-002,8.527827E-002,8.527827E-002,8.527827E-002,8.527827E-002,8.527827E-002,8.527827E-002,8.527827E-002,8.527827E-002,8.527827E-002,
   **   ~~~   ** Supply-to-demand interface deck 1 mass flow rate check value iteration history trace: 8.527827E-002,8.527827E-002,8.527827E-002,8.527827E-002,8.527827E-002,8.527827E-002,8.527827E-002,8.527827E-002,8.527827E-002,8.527827E-002,
   **   ~~~   ** Air System Named = CENTRAL SYSTEM did not converge for energy
   **   ~~~   ** Check values should be zero. Most Recent values listed first.
   **   ~~~   ** Demand-to-Supply interface energy check value iteration history trace: 1680.407287,1680.407287,1680.407287,1680.407287,1680.407287,1680.407287,1680.407287,1680.407287,1680.407287,1680.407287,
   **   ~~~   ** Supply-to-demand interface deck 1 energy check value iteration history trace: 2660.416929,2660.416929,2660.416929,2660.416929,2660.416929,2660.416929,2660.416929,2660.416928,2660.416928,2660.416928,
   ** Warning ** SimHVAC: Maximum iterations (20) exceeded for all HVAC loops, at ANNUAL, 02/02 12:15 - 12:18
   **   ~~~   ** The solution for one or more of the Air Loop HVAC systems did not appear to converge
   **   ~~~   ** Air System Named = CENTRAL SYSTEM did not converge for mass flow rate
   **   ~~~   ** Check values should be zero. Most Recent values listed first.
   **   ~~~   ** Demand-to-Supply interface mass flow rate check value iteration history trace: 6.252121E-002,6.252121E-002,6.252121E-002,6.252121E-002,6.252121E-002,6.252121E-002,6.252121E-002,6.252121E-002,6.252121E-002,6.252121E-002,
   **   ~~~   ** Supply-to-demand interface deck 1 mass flow rate check value iteration history trace: 6.252121E-002,6.252121E-002,6.252121E-002,6.252121E-002,6.252121E-002,6.252121E-002,6.252121E-002,6.252121E-002,6.252121E-002,6.252121E-002,
   **   ~~~   ** Air System Named = CENTRAL SYSTEM did not converge for energy
   **   ~~~   ** Check values should be zero. Most Recent values listed first.
   **   ~~~   ** Demand-to-Supply interface energy check value iteration history trace: 1238.974475,1238.974475,1238.974475,1238.974475,1238.974475,1238.974475,1238.974475,1238.974475,1238.974475,1238.974475,
   **   ~~~   ** Supply-to-demand interface deck 1 energy check value iteration history trace: 2198.452033,2198.452033,2198.452033,2198.452032,2198.452032,2198.452032,2198.452032,2198.452032,2198.452032,2198.452032,
   ** Warning ** SimHVAC: Maximum iterations (20) exceeded for all HVAC loops, at ANNUAL, 02/02 18:03 - 18:06
   **   ~~~   ** The solution for one or more of the Air Loop HVAC systems did not appear to converge
   **   ~~~   ** Air System Named = CENTRAL SYSTEM did not converge for mass flow rate
   **   ~~~   ** Check values should be zero. Most Recent values listed first.
   **   ~~~   ** Demand-to-Supply interface mass flow rate check value iteration history trace: 7.422211E-002,7.422211E-002,7.422211E-002,7.422211E-002,7.422211E-002,7.422211E-002,7.422211E-002,7.422211E-002,7.422211E-002,7.422211E-002,
   **   ~~~   ** Supply-to-demand interface deck 1 mass flow rate check value iteration history trace: 7.422211E-002,7.422211E-002,7.422211E-002,7.422211E-002,7.422211E-002,7.422211E-002,7.422211E-002,7.422211E-002,7.422211E-002,7.422211E-002,
   **   ~~~   ** Air System Named = CENTRAL SYSTEM did not converge for energy
   **   ~~~   ** Check values should be zero. Most Recent values listed first.
   **   ~~~   ** Demand-to-Supply interface energy check value iteration history trace: 1465.891305,1465.891305,1465.891305,1465.891304,1465.891304,1465.891304,1465.891304,1465.891304,1465.891304,1465.891304,
   **   ~~~   ** Supply-to-demand interface deck 1 energy check value iteration history trace: 2246.307805,2246.307805,2246.307804,2246.307804,2246.307804,2246.307804,2246.307804,2246.307804,2246.307804,2246.307804,
   ** Warning ** Temperature out of range [-100. to 200.] (PsyPsatFnTemp)
   **   ~~~   **  Routine=PsyTwbFnTdbWPb, Environment=ANNUAL, at Simulation time=02/03 23:30 - 23:38
   **   ~~~   **  Input Temperature=-106.52
   ** Warning ** SimHVAC: Maximum iterations (20) exceeded for all HVAC loops, at ANNUAL, 02/14 10:17 - 10:20
   **   ~~~   ** The solution for one or more of the Air Loop HVAC systems did not appear to converge
   **   ~~~   ** Air System Named = CENTRAL SYSTEM did not converge for mass flow rate
   **   ~~~   ** Check values should be zero. Most Recent values listed first.
   **   ~~~   ** Demand-to-Supply interface mass flow rate check value iteration history trace: 7.748252E-002,7.748252E-002,7.748252E-002,7.748252E-002,7.748252E-002,7.748252E-002,7.748252E-002,7.748252E-002,7.748252E-002,7.748252E-002,
   **   ~~~   ** Supply-to-demand interface deck 1 mass flow rate check value iteration history trace: 7.748252E-002,7.748252E-002,7.748252E-002,7.748252E-002,7.748252E-002,7.748252E-002,7.748252E-002,7.748252E-002,7.748252E-002,7.748252E-002,
   **   ~~~   ** Air System Named = CENTRAL SYSTEM did not converge for energy
   **   ~~~   ** Check values should be zero. Most Recent values listed first.
   **   ~~~   ** Demand-to-Supply interface energy check value iteration history trace: 1535.683969,1535.683969,1535.683969,1535.683969,1535.683969,1535.683969,1535.683969,1535.683969,1535.683969,1535.683969,
   **   ~~~   ** Supply-to-demand interface deck 1 energy check value iteration history trace: 2669.182908,2669.182908,2669.182908,2669.182908,2669.182908,2669.182907,2669.182907,2669.182907,2669.182907,2669.182907,
   ** Warning ** SimHVAC: Maximum iterations (20) exceeded for all HVAC loops, at ANNUAL, 02/17 10:15 - 10:30
   **   ~~~   ** The solution for one or more of the Air Loop HVAC systems did not appear to converge
   **   ~~~   ** Air System Named = CENTRAL SYSTEM did not converge for mass flow rate
   **   ~~~   ** Check values should be zero. Most Recent values listed first.
   **   ~~~   ** Demand-to-Supply interface mass flow rate check value iteration history trace: 9.796268E-002,9.796268E-002,9.796268E-002,9.796268E-002,9.796268E-002,9.796268E-002,9.796268E-002,9.796268E-002,9.796268E-002,9.796268E-002,
   **   ~~~   ** Supply-to-demand interface deck 1 mass flow rate check value iteration history trace: 9.796268E-002,9.796268E-002,9.796268E-002,9.796268E-002,9.796268E-002,9.796268E-002,9.796268E-002,9.796268E-002,9.796268E-002,9.796268E-002,
   **   ~~~   ** Air System Named = CENTRAL SYSTEM did not converge for energy
   **   ~~~   ** Check values should be zero. Most Recent values listed first.
   **   ~~~   ** Demand-to-Supply interface energy check value iteration history trace: 1941.319943,1941.319943,1941.319943,1941.319943,1941.319943,1941.319943,1941.319942,1941.319942,1941.319942,1941.319942,
   **   ~~~   ** Supply-to-demand interface deck 1 energy check value iteration history trace: 3059.940235,3059.940235,3059.940235,3059.940235,3059.940235,3059.940234,3059.940234,3059.940234,3059.940234,3059.940234,
   ** Warning ** SimHVAC: Maximum iterations (20) exceeded for all HVAC loops, at ANNUAL, 02/19 18:08 - 18:11
   **   ~~~   ** The solution for one or more of the Air Loop HVAC systems did not appear to converge
   **   ~~~   ** Air System Named = CENTRAL SYSTEM did not converge for mass flow rate
   **   ~~~   ** Check values should be zero. Most Recent values listed first.
   **   ~~~   ** Demand-to-Supply interface mass flow rate check value iteration history trace: 7.368117E-002,7.368117E-002,7.368117E-002,7.368117E-002,7.368117E-002,7.368117E-002,7.368117E-002,7.368117E-002,7.368117E-002,7.368117E-002,
   **   ~~~   ** Supply-to-demand interface deck 1 mass flow rate check value iteration history trace: 7.368117E-002,7.368117E-002,7.368117E-002,7.368117E-002,7.368117E-002,7.368117E-002,7.368117E-002,7.368117E-002,7.368117E-002,7.368117E-002,
   **   ~~~   ** Air System Named = CENTRAL SYSTEM did not converge for energy
   **   ~~~   ** Check values should be zero. Most Recent values listed first.
   **   ~~~   ** Demand-to-Supply interface energy check value iteration history trace: 1451.593988,1451.593988,1451.593988,1451.593988,1451.593988,1451.593988,1451.593988,1451.593987,1451.593987,1451.593987,
   **   ~~~   ** Supply-to-demand interface deck 1 energy check value iteration history trace: 2279.141979,2279.141979,2279.141979,2279.141978,2279.141978,2279.141978,2279.141978,2279.141978,2279.141978,2279.141978,
   ************* Simulation Error Summary *************
   ** Warning ** The following Report Variables were requested but not generated -- check.rdd file
   **   ~~~   ** Either the IDF did not contain these elements, the variable name is misspelled,
   **   ~~~   ** or the requested variable is an advanced output which requires Output : Diagnostics, DisplayAdvancedReportVariables;
   ************* Key=*, VarName=BASEBOARD TOTAL HEATING ENERGY, Frequency=
   ************* Key=*, VarName=WATER HEATER NATURALGAS ENERGY, Frequency=
   ************* Key=*, VarName=COOLING COIL TOTAL HEATING ENERGY, Frequency=
   ************* There are 34 unused schedules in input.
   ************* There are 388 unused week schedules in input.
   ************* There are 396 unused day schedules in input.
   ************* Use Output:Diagnostics,DisplayUnusedSchedules; to see them.
   *************
   ************* ===== Recurring Error Summary =====
   ************* The following recurring error messages occurred.
   *************
   *************  ** Warning ** "TOTAL HOT WATER LOAD" - Target water temperature should be less than or equal to the hot water temperature error continues...
   *************  **   ~~~   **   This error occurred 196889 total times;
   *************  **   ~~~   **   during Warmup 0 times;
   *************  **   ~~~   **   during Sizing 0 times.
   *************  **   ~~~   **   Max=13.260769  Min=5.212552E-004
   *************
   *************  ** Warning ** Temperature out of range [-100. to 200.] (PsyPsatFnTemp)
   *************  **   ~~~   **   This error occurred 1 total times;
   *************  **   ~~~   **   during Warmup 0 times;
   *************  **   ~~~   **   during Sizing 0 times.
   *************  **   ~~~   **   Max=-106.528225 C  Min=-106.528225 C
   *************
   *************  ** Warning ** SimHVAC: Exceeding Maximum iterations for all HVAC loops, during ANNUAL continues
   *************  **   ~~~   **   This error occurred 24 total times;
   *************  **   ~~~   **   during Warmup 0 times;
   *************  **   ~~~   **   during Sizing 0 times.
   *************
   *************
   ************* ===== Final Error Summary =====
   ************* The following error categories occurred.  Consider correcting or noting.
   ************* Nominally Unused Constructions
   ************* ..The nominally unused constructions warning is provided to alert you to potential conditions that can cause
   ************* ..extra time during simulation. Each construction is calculated by the algorithm indicated in the HeatBalanceAlgorithm
   ************* ..object. You may remove the constructions indicated (when you use the DisplayExtraWarnings option).
   *************
   ************* EnergyPlus Warmup Error Summary. During Warmup: 1 Warning; 0 Severe Errors.
   ************* EnergyPlus Sizing Error Summary. During Sizing: 4 Warning; 0 Severe Errors.
   ************* EnergyPlus Completed Successfully-- 196946 Warning; 0 Severe Errors; Elapsed Time=00hr 01min 43.55sec
