Program Version,EnergyPlus, Version 22.2.0-c249759bad, YMD=2023.09.01 19:39,
   ************* Beginning Zone Sizing Calculations
   ** Warning ** ProcessScheduleInput: Schedule:Constant="ALWAYS ON DISCRETE", Schedule Type Limits Name="ONOFF" not found -- will not be validated
   ** Warning ** Foundation:Kiva="KIVA FOUNDATION", no Interior Horizontal Insulation Material Name defined
   **   ~~~   ** Interior Horizontal Insulation Depth will not be used.
   ** Warning ** CheckUsedConstructions: There are 15 nominally unused constructions in input.
   **   ~~~   ** Each Unused construction is shown.
   ************* Construction=INTERIOR FLOOR
   ************* Construction=INTERIOR WINDOW
   ************* Construction=EXTERIOR DOOR
   ************* Construction=INTERIOR DOOR
   ************* Construction=GABLE CONSTRUCTION
   ************* Construction=CRAWL_FLOOR
   ************* Construction=INSULATED PIPE
   ************* Construction=PLAIN PIPE
   ************* Construction=TDD PIPE
   ************* Construction=TDD DOME
   ************* Construction=TDD DIFFUSER
   ************* Construction=CRAWL WALL
   ************* Construction=CEILING-FLOOR-LAYER
   ************* Construction=SLAB CONSTRUCTION W FULL R10 INSULATION
   ************* Construction=SLAB CONSTRUCTION W FULL R5 INSULATION
   ** Warning ** GetDXCoils: Coil:Heating:DX:SingleSpeed="DX_HEATING_COIL" curve values
   **   ~~~   ** ... Defrost Energy Input Ratio Function of Temperature Curve Name = DEFROSTEIR output is not equal to 1.0 (+ or - 10%) at rated conditions.
   **   ~~~   ** ... Curve output at rated conditions = 0.152
   ************* Beginning System Sizing Calculations
   ************* Beginning Plant Sizing Calculations
   ** Warning ** SizeDXCoil Coil:Cooling:DX:SingleSpeed DX_COOLING_COIL
   **   ~~~   ** ...Gross Rated Total Cooling Capacity [W] will be limited by the maximum rated volume flow per rated total capacity ratio.
   **   ~~~   ** ...DX coil volume flow rate ( m3/s ) = 0.384598
   **   ~~~   ** ...Requested capacity ( W ) = 5699.880
   **   ~~~   ** ...Requested flow/capacity ratio ( m3/s/W ) = 6.747E-005
   **   ~~~   ** ...Maximum flow/capacity ratio ( m3/s/W ) = 6.041E-005
   **   ~~~   ** ...Adjusted capacity ( W ) = 6366.474
   ** Warning ** Coil:WaterHeating:AirToWaterHeatPump:Wrapped "HEAT PUMP WATER HEATER EVAPORATOR": Rated air volume flow rate per watt of rated total water heating capacity is out of range
   **   ~~~   ** Min Rated Vol Flow Per Watt=[4.027E-005], Rated Vol Flow Per Watt=[1.510E-004], Max Rated Vol Flow Per Watt=[8.056E-005]. See Input-Output Reference Manual for valid range.
   ************* SizeFan: : Potential issue with equipment sizing for Fan:OnOff HEAT PUMP WATER HEATER FAN
   **   ~~~   ** User-Specified Maximum Flow Rate [m3/s] = 0.22653
   **   ~~~   ** differs from Design Size Maximum Flow Rate [m3/s] = 7.55250E-002
   **   ~~~   ** This may, or may not, indicate mismatched component sizes.
   **   ~~~   ** Verify that the value entered is intended and is consistent with other components.
   ** Warning ** Water heater = WATER HEATER TANK:  Recovery Efficiency and Energy Factor could not be calculated during the test for standard ratings
   **   ~~~   ** Setpoint was never recovered and/or heater never turned on
   ** Warning ** Check input. Pump nominal power or motor efficiency is set to 0, for pump=MAINS PRESSURE
   ** Warning ** AirflowNetwork::Solver::validate_distribution: Heat pump water heater is simulated along with an AirflowNetwork but is not included in the AirflowNetwork.
   ** Warning ** Output:Meter: invalid Key Name="ELECTRIC_RANGE:INTERIOREQUIPMENT:ELECTRICITY" - not found.
   ** Warning ** Output:Meter: invalid Key Name="ELECTRIC_DRYER:INTERIOREQUIPMENT:ELECTRICITY" - not found.
   ** Warning ** Output:Meter: invalid Key Name="HEATRECOVERY:ELECTRICITY" - not found.
   ** Warning ** Output:Meter: invalid Key Name="HEATING:NATURALGAS" - not found.
   ** Warning ** Output:Meter: invalid Key Name="WATERSYSTEMS:NATURALGAS" - not found.
   ** Warning ** Output:Meter: invalid Key Name="PROPANE:FACILITY" - not found.
   ** Warning ** Output:Meter: invalid Key Name="HEATING:PROPANE" - not found.
   ************* Testing Individual Branch Integrity
   ************* All Branches passed integrity testing
   ************* Testing Individual Supply Air Path Integrity
   ************* All Supply Air Paths passed integrity testing
   ************* Testing Individual Return Air Path Integrity
   ************* All Return Air Paths passed integrity testing
   ************* No node connection errors were found.
   ************* Beginning Simulation
   ** Warning ** CalcEquipmentFlowRates: "TOTAL HOT WATER LOAD" - Target water temperature is greater than the hot water temperature by (8.84E-002 C)
   **   ~~~   **  Environment=EXTREME_WINTER, at Simulation time=01/18 06:00 - 06:15
   **   ~~~   ** ...target water temperature     = 53.33 C
   **   ~~~   ** ...hot water temperature        = 53.24 C
   **   ~~~   ** ...Target water temperature should be less than or equal to the hot water temperature. Verify temperature setpoints and schedules.
   ** Warning ** SimHVAC: Maximum iterations (20) exceeded for all HVAC loops, at ANNUAL, 02/14 19:08 - 19:11
   **   ~~~   ** The solution for one or more of the Air Loop HVAC systems did not appear to converge
   **   ~~~   ** Air System Named = CENTRAL SYSTEM did not converge for mass flow rate
   **   ~~~   ** Check values should be zero. Most Recent values listed first.
   **   ~~~   ** Demand-to-Supply interface mass flow rate check value iteration history trace: 0.106353,0.106353,0.106353,0.106353,0.106353,0.106353,0.106353,0.106353,0.106353,0.106353,
   **   ~~~   ** Supply-to-demand interface deck 1 mass flow rate check value iteration history trace: 0.106353,0.106353,0.106353,0.106353,0.106353,0.106353,0.106353,0.106353,0.106353,0.106353,
   **   ~~~   ** Air System Named = CENTRAL SYSTEM did not converge for energy
   **   ~~~   ** Check values should be zero. Most Recent values listed first.
   **   ~~~   ** Demand-to-Supply interface energy check value iteration history trace: 2108.553333,2108.553333,2108.553333,2108.553332,2108.553332,2108.553332,2108.553332,2108.553332,2108.553332,2108.553332,
   **   ~~~   ** Supply-to-demand interface deck 1 energy check value iteration history trace: 3156.798886,3156.798886,3156.798886,3156.798885,3156.798885,3156.798885,3156.798885,3156.798885,3156.798884,3156.798884,
   ** Warning ** SimHVAC: Maximum iterations (20) exceeded for all HVAC loops, at ANNUAL, 03/28 09:00 - 09:15
   **   ~~~   ** The solution for one or more of the Air Loop HVAC systems did not appear to converge
   **   ~~~   ** Air System Named = CENTRAL SYSTEM did not converge for mass flow rate
   **   ~~~   ** Check values should be zero. Most Recent values listed first.
   **   ~~~   ** Demand-to-Supply interface mass flow rate check value iteration history trace: 7.355289E-002,7.355289E-002,7.355289E-002,7.355289E-002,7.355289E-002,7.355289E-002,7.355289E-002,7.355289E-002,7.355289E-002,7.355289E-002,
   **   ~~~   ** Supply-to-demand interface deck 1 mass flow rate check value iteration history trace: 7.355289E-002,7.355289E-002,7.355289E-002,7.355289E-002,7.355289E-002,7.355289E-002,7.355289E-002,7.355289E-002,7.355289E-002,7.355289E-002,
   **   ~~~   ** Air System Named = CENTRAL SYSTEM did not converge for energy
   **   ~~~   ** Check values should be zero. Most Recent values listed first.
   **   ~~~   ** Demand-to-Supply interface energy check value iteration history trace: 1457.586117,1457.586117,1457.586117,1457.586117,1457.586117,1457.586117,1457.586116,1457.586116,1457.586116,1457.586116,
   **   ~~~   ** Supply-to-demand interface deck 1 energy check value iteration history trace: 2496.845804,2496.845804,2496.845804,2496.845804,2496.845804,2496.845804,2496.845803,2496.845803,2496.845803,2496.845803,
   ** Warning ** SimHVAC: Maximum iterations (20) exceeded for all HVAC loops, at ANNUAL, 04/22 09:30 - 09:45
   **   ~~~   ** The solution for one or more of the Air Loop HVAC systems did not appear to converge
   **   ~~~   ** Air System Named = CENTRAL SYSTEM did not converge for mass flow rate
   **   ~~~   ** Check values should be zero. Most Recent values listed first.
   **   ~~~   ** Demand-to-Supply interface mass flow rate check value iteration history trace: 7.977012E-002,7.977012E-002,7.977012E-002,7.977012E-002,7.977012E-002,7.977012E-002,7.977012E-002,7.977012E-002,7.977012E-002,7.977012E-002,
   **   ~~~   ** Supply-to-demand interface deck 1 mass flow rate check value iteration history trace: 7.977012E-002,7.977012E-002,7.977012E-002,7.977012E-002,7.977012E-002,7.977012E-002,7.977012E-002,7.977012E-002,7.977012E-002,7.977012E-002,
   **   ~~~   ** Air System Named = CENTRAL SYSTEM did not converge for energy
   **   ~~~   ** Check values should be zero. Most Recent values listed first.
   **   ~~~   ** Demand-to-Supply interface energy check value iteration history trace: 1580.686086,1580.686086,1580.686086,1580.686086,1580.686086,1580.686086,1580.686086,1580.686085,1580.686085,1580.686085,
   **   ~~~   ** Supply-to-demand interface deck 1 energy check value iteration history trace: 2678.988723,2678.988723,2678.988723,2678.988723,2678.988723,2678.988723,2678.988722,2678.988722,2678.988722,2678.988722,
   ** Warning ** SimHVAC: Maximum iterations (20) exceeded for all HVAC loops, at ANNUAL, 04/22 11:00 - 11:04
   **   ~~~   ** The solution for one or more of the Air Loop HVAC systems did not appear to converge
   **   ~~~   ** Air System Named = CENTRAL SYSTEM did not converge for mass flow rate
   **   ~~~   ** Check values should be zero. Most Recent values listed first.
   **   ~~~   ** Demand-to-Supply interface mass flow rate check value iteration history trace: 7.294614E-002,7.294614E-002,7.294614E-002,7.294614E-002,7.294614E-002,7.294614E-002,7.294614E-002,7.294614E-002,7.294614E-002,7.294614E-002,
   **   ~~~   ** Supply-to-demand interface deck 1 mass flow rate check value iteration history trace: 7.294614E-002,7.294614E-002,7.294614E-002,7.294614E-002,7.294614E-002,7.294614E-002,7.294614E-002,7.294614E-002,7.294614E-002,7.294614E-002,
   **   ~~~   ** Air System Named = CENTRAL SYSTEM did not converge for energy
   **   ~~~   ** Check values should be zero. Most Recent values listed first.
   **   ~~~   ** Demand-to-Supply interface energy check value iteration history trace: 1440.527481,1440.527481,1440.527481,1440.527481,1440.527481,1440.527481,1440.527481,1440.527481,1440.527481,1440.527481,
   **   ~~~   ** Supply-to-demand interface deck 1 energy check value iteration history trace: 2442.636531,2442.636531,2442.636531,2442.636531,2442.636531,2442.636531,2442.636530,2442.636530,2442.636530,2442.636530,
   ** Warning ** SimHVAC: Maximum iterations (20) exceeded for all HVAC loops, at ANNUAL, 04/24 06:45 - 06:50
   **   ~~~   ** The solution for one or more of the Air Loop HVAC systems did not appear to converge
   **   ~~~   ** Air System Named = CENTRAL SYSTEM did not converge for mass flow rate
   **   ~~~   ** Check values should be zero. Most Recent values listed first.
   **   ~~~   ** Demand-to-Supply interface mass flow rate check value iteration history trace: 5.990208E-002,5.990208E-002,5.990208E-002,5.990208E-002,5.990208E-002,5.990208E-002,5.990208E-002,5.990208E-002,5.990208E-002,5.990208E-002,
   **   ~~~   ** Supply-to-demand interface deck 1 mass flow rate check value iteration history trace: 5.990208E-002,5.990208E-002,5.990208E-002,5.990208E-002,5.990208E-002,5.990208E-002,5.990208E-002,5.990208E-002,5.990208E-002,5.990208E-002,
   **   ~~~   ** Air System Named = CENTRAL SYSTEM did not converge for energy
   **   ~~~   ** Check values should be zero. Most Recent values listed first.
   **   ~~~   ** Demand-to-Supply interface energy check value iteration history trace: 1187.021837,1187.021837,1187.021837,1187.021837,1187.021837,1187.021836,1187.021836,1187.021836,1187.021836,1187.021836,
   **   ~~~   ** Supply-to-demand interface deck 1 energy check value iteration history trace: 2171.084431,2171.084431,2171.084431,2171.084431,2171.084431,2171.084431,2171.084430,2171.084430,2171.084430,2171.084430,
   ** Warning ** SimHVAC: Maximum iterations (20) exceeded for all HVAC loops, at ANNUAL, 06/20 01:00 - 01:15
   **   ~~~   ** The solution for one or more of the Air Loop HVAC systems did not appear to converge
   **   ~~~   ** Air System Named = CENTRAL SYSTEM did not converge for mass flow rate
   **   ~~~   ** Check values should be zero. Most Recent values listed first.
   **   ~~~   ** Demand-to-Supply interface mass flow rate check value iteration history trace: 8.815711E-002,8.815711E-002,8.815711E-002,8.815711E-002,8.815711E-002,8.815711E-002,8.815711E-002,8.815711E-002,8.815711E-002,8.815711E-002,
   **   ~~~   ** Supply-to-demand interface deck 1 mass flow rate check value iteration history trace: 8.815711E-002,8.815711E-002,8.815711E-002,8.815711E-002,8.815711E-002,8.815711E-002,8.815711E-002,8.815711E-002,8.815711E-002,8.815711E-002,
   **   ~~~   ** Air System Named = CENTRAL SYSTEM did not converge for energy
   **   ~~~   ** Check values should be zero. Most Recent values listed first.
   **   ~~~   ** Demand-to-Supply interface energy check value iteration history trace: 2202.459656,2202.459657,2202.459657,2202.459658,2202.459659,2202.459659,2202.459660,2202.459660,2202.459661,2202.459661,
   **   ~~~   ** Supply-to-demand interface deck 1 energy check value iteration history trace: 1119.296421,1119.296422,1119.296422,1119.296422,1119.296423,1119.296423,1119.296423,1119.296423,1119.296424,1119.296424,
   ** Warning ** SimHVAC: Maximum iterations (20) exceeded for all HVAC loops, at ANNUAL, 09/11 07:05 - 07:08
   **   ~~~   ** The solution for one or more of the Air Loop HVAC systems did not appear to converge
   **   ~~~   ** Air System Named = CENTRAL SYSTEM did not converge for mass flow rate
   **   ~~~   ** Check values should be zero. Most Recent values listed first.
   **   ~~~   ** Demand-to-Supply interface mass flow rate check value iteration history trace: 6.462945E-002,6.462945E-002,6.462945E-002,6.462945E-002,6.462945E-002,6.462945E-002,6.462945E-002,6.462945E-002,6.462945E-002,6.462945E-002,
   **   ~~~   ** Supply-to-demand interface deck 1 mass flow rate check value iteration history trace: 6.462945E-002,6.462945E-002,6.462945E-002,6.462945E-002,6.462945E-002,6.462945E-002,6.462945E-002,6.462945E-002,6.462945E-002,6.462945E-002,
   **   ~~~   ** Air System Named = CENTRAL SYSTEM did not converge for energy
   **   ~~~   ** Check values should be zero. Most Recent values listed first.
   **   ~~~   ** Demand-to-Supply interface energy check value iteration history trace: 1278.089554,1278.089554,1278.089554,1278.089554,1278.089554,1278.089554,1278.089554,1278.089553,1278.089553,1278.089553,
   **   ~~~   ** Supply-to-demand interface deck 1 energy check value iteration history trace: 2231.288087,2231.288087,2231.288087,2231.288087,2231.288086,2231.288086,2231.288086,2231.288086,2231.288086,2231.288086,
   ** Warning ** SimHVAC: Maximum iterations (20) exceeded for all HVAC loops, at ANNUAL, 09/12 17:30 - 17:45
   **   ~~~   ** The solution for one or more of the Air Loop HVAC systems did not appear to converge
   **   ~~~   ** Air System Named = CENTRAL SYSTEM did not converge for mass flow rate
   **   ~~~   ** Check values should be zero. Most Recent values listed first.
   **   ~~~   ** Demand-to-Supply interface mass flow rate check value iteration history trace: 0.112522,0.112522,0.112522,0.112522,0.112522,0.112522,0.112522,0.112522,0.112522,0.112522,
   **   ~~~   ** Supply-to-demand interface deck 1 mass flow rate check value iteration history trace: 0.112522,0.112522,0.112522,0.112522,0.112522,0.112522,0.112522,0.112522,0.112522,0.112522,
   **   ~~~   ** Air System Named = CENTRAL SYSTEM did not converge for energy
   **   ~~~   ** Check values should be zero. Most Recent values listed first.
   **   ~~~   ** Demand-to-Supply interface energy check value iteration history trace: 2648.654452,2648.654452,2648.654452,2648.654453,2648.654453,2648.654453,2648.654453,2648.654453,2648.654453,2648.654454,
   **   ~~~   ** Supply-to-demand interface deck 1 energy check value iteration history trace: 1438.436969,1438.436969,1438.436969,1438.436970,1438.436970,1438.436970,1438.436970,1438.436970,1438.436970,1438.436970,
   ** Warning ** SimHVAC: Maximum iterations (20) exceeded for all HVAC loops, at ANNUAL, 09/12 20:30 - 20:45
   **   ~~~   ** The solution for one or more of the Air Loop HVAC systems did not appear to converge
   **   ~~~   ** Air System Named = CENTRAL SYSTEM did not converge for energy
   **   ~~~   ** Check values should be zero. Most Recent values listed first.
   **   ~~~   ** Demand-to-Supply interface energy check value iteration history trace: 193.489482,193.489482,193.489482,193.489482,193.489482,193.489482,193.489482,193.489482,193.489482,193.489482,
   **   ~~~   ** Supply-to-demand interface deck 1 energy check value iteration history trace: 101.842173,101.842173,101.842173,101.842173,101.842173,101.842173,101.842173,101.842173,101.842173,101.842173,
   ** Warning ** SimHVAC: Maximum iterations (20) exceeded for all HVAC loops, at ANNUAL, 09/23 10:06 - 10:09
   **   ~~~   ** The solution for one or more of the Air Loop HVAC systems did not appear to converge
   **   ~~~   ** Air System Named = CENTRAL SYSTEM did not converge for mass flow rate
   **   ~~~   ** Check values should be zero. Most Recent values listed first.
   **   ~~~   ** Demand-to-Supply interface mass flow rate check value iteration history trace: 0.143761,0.143761,0.143761,0.143761,0.143761,0.143761,0.143761,0.143761,0.143761,0.143761,
   **   ~~~   ** Supply-to-demand interface deck 1 mass flow rate check value iteration history trace: 0.143761,0.143761,0.143761,0.143761,0.143761,0.143761,0.143761,0.143761,0.143761,0.143761,
   **   ~~~   ** Air System Named = CENTRAL SYSTEM did not converge for energy
   **   ~~~   ** Check values should be zero. Most Recent values listed first.
   **   ~~~   ** Demand-to-Supply interface energy check value iteration history trace: 3398.327385,3398.327385,3398.327385,3398.327385,3398.327385,3398.327386,3398.327386,3398.327386,3398.327386,3398.327386,
   **   ~~~   ** Supply-to-demand interface deck 1 energy check value iteration history trace: 1846.433428,1846.433429,1846.433429,1846.433429,1846.433429,1846.433429,1846.433429,1846.433429,1846.433429,1846.433429,
   ** Warning ** SimHVAC: Maximum iterations (20) exceeded for all HVAC loops, at ANNUAL, 09/28 12:39 - 12:42
   **   ~~~   ** The solution for one or more of the Air Loop HVAC systems did not appear to converge
   **   ~~~   ** Air System Named = CENTRAL SYSTEM did not converge for mass flow rate
   **   ~~~   ** Check values should be zero. Most Recent values listed first.
   **   ~~~   ** Demand-to-Supply interface mass flow rate check value iteration history trace: 0.268482,0.268482,0.268482,0.268482,0.268482,0.268482,0.268482,0.268482,0.268482,0.268482,
   **   ~~~   ** Supply-to-demand interface deck 1 mass flow rate check value iteration history trace: 0.268482,0.268482,0.268482,0.268482,0.268482,0.268482,0.268482,0.268482,0.268482,0.268482,
   **   ~~~   ** Air System Named = CENTRAL SYSTEM did not converge for energy
   **   ~~~   ** Check values should be zero. Most Recent values listed first.
   **   ~~~   ** Demand-to-Supply interface energy check value iteration history trace: 6368.866507,6368.866507,6368.866507,6368.866508,6368.866508,6368.866508,6368.866509,6368.866509,6368.866509,6368.866510,
   **   ~~~   ** Supply-to-demand interface deck 1 energy check value iteration history trace: 3461.157921,3461.157921,3461.157921,3461.157921,3461.157922,3461.157922,3461.157922,3461.157922,3461.157922,3461.157923,
   ** Warning ** SimHVAC: Maximum iterations (20) exceeded for all HVAC loops, at ANNUAL, 10/04 08:17 - 08:20
   **   ~~~   ** The solution for one or more of the Air Loop HVAC systems did not appear to converge
   **   ~~~   ** Air System Named = CENTRAL SYSTEM did not converge for mass flow rate
   **   ~~~   ** Check values should be zero. Most Recent values listed first.
   **   ~~~   ** Demand-to-Supply interface mass flow rate check value iteration history trace: 8.889236E-002,8.889236E-002,8.889236E-002,8.889236E-002,8.889236E-002,8.889236E-002,8.889236E-002,8.889236E-002,8.889236E-002,8.889236E-002,
   **   ~~~   ** Supply-to-demand interface deck 1 mass flow rate check value iteration history trace: 8.889236E-002,8.889236E-002,8.889236E-002,8.889236E-002,8.889236E-002,8.889236E-002,8.889236E-002,8.889236E-002,8.889236E-002,8.889236E-002,
   **   ~~~   ** Air System Named = CENTRAL SYSTEM did not converge for energy
   **   ~~~   ** Check values should be zero. Most Recent values listed first.
   **   ~~~   ** Demand-to-Supply interface energy check value iteration history trace: 1761.566046,1761.566046,1761.566046,1761.566046,1761.566046,1761.566046,1761.566045,1761.566045,1761.566045,1761.566045,
   **   ~~~   ** Supply-to-demand interface deck 1 energy check value iteration history trace: 2721.264942,2721.264942,2721.264941,2721.264941,2721.264941,2721.264941,2721.264941,2721.264940,2721.264940,2721.264940,
   ** Warning ** SimHVAC: Maximum iterations (20) exceeded for all HVAC loops, at ANNUAL, 10/10 08:30 - 08:38
   **   ~~~   ** The solution for one or more of the Air Loop HVAC systems did not appear to converge
   **   ~~~   ** Air System Named = CENTRAL SYSTEM did not converge for mass flow rate
   **   ~~~   ** Check values should be zero. Most Recent values listed first.
   **   ~~~   ** Demand-to-Supply interface mass flow rate check value iteration history trace: 6.482821E-002,6.482821E-002,6.482821E-002,6.482821E-002,6.482821E-002,6.482821E-002,6.482821E-002,6.482821E-002,6.482821E-002,6.482821E-002,
   **   ~~~   ** Supply-to-demand interface deck 1 mass flow rate check value iteration history trace: 6.482821E-002,6.482821E-002,6.482821E-002,6.482821E-002,6.482821E-002,6.482821E-002,6.482821E-002,6.482821E-002,6.482821E-002,6.482821E-002,
   **   ~~~   ** Air System Named = CENTRAL SYSTEM did not converge for energy
   **   ~~~   ** Check values should be zero. Most Recent values listed first.
   **   ~~~   ** Demand-to-Supply interface energy check value iteration history trace: 1274.623518,1274.623518,1274.623517,1274.623517,1274.623517,1274.623517,1274.623517,1274.623517,1274.623517,1274.623517,
   **   ~~~   ** Supply-to-demand interface deck 1 energy check value iteration history trace: 2283.645247,2283.645247,2283.645247,2283.645247,2283.645247,2283.645247,2283.645247,2283.645247,2283.645247,2283.645247,
   ** Warning ** SimHVAC: Maximum iterations (20) exceeded for all HVAC loops, at ANNUAL, 10/12 04:30 - 04:45
   **   ~~~   ** The solution for one or more of the Air Loop HVAC systems did not appear to converge
   **   ~~~   ** Air System Named = CENTRAL SYSTEM did not converge for mass flow rate
   **   ~~~   ** Check values should be zero. Most Recent values listed first.
   **   ~~~   ** Demand-to-Supply interface mass flow rate check value iteration history trace: 5.536175E-002,5.536175E-002,5.536175E-002,5.536175E-002,5.536175E-002,5.536175E-002,5.536175E-002,5.536175E-002,5.536175E-002,5.536175E-002,
   **   ~~~   ** Supply-to-demand interface deck 1 mass flow rate check value iteration history trace: 5.536175E-002,5.536175E-002,5.536175E-002,5.536175E-002,5.536175E-002,5.536175E-002,5.536175E-002,5.536175E-002,5.536175E-002,5.536175E-002,
   **   ~~~   ** Air System Named = CENTRAL SYSTEM did not converge for energy
   **   ~~~   ** Check values should be zero. Most Recent values listed first.
   **   ~~~   ** Demand-to-Supply interface energy check value iteration history trace: 1039.971781,1039.971781,1039.971781,1039.971781,1039.971781,1039.971781,1039.971781,1039.971781,1039.971781,1039.971781,
   **   ~~~   ** Supply-to-demand interface deck 1 energy check value iteration history trace: 1821.544181,1821.544181,1821.544180,1821.544180,1821.544180,1821.544180,1821.544180,1821.544180,1821.544180,1821.544180,
   ************* Simulation Error Summary *************
   ** Warning ** The following Report Variables were requested but not generated -- check.rdd file
   **   ~~~   ** Either the IDF did not contain these elements, the variable name is misspelled,
   **   ~~~   ** or the requested variable is an advanced output which requires Output : Diagnostics, DisplayAdvancedReportVariables;
   ************* Key=*, VarName=BASEBOARD TOTAL HEATING ENERGY, Frequency=
   ************* Key=*, VarName=WATER HEATER NATURALGAS ENERGY, Frequency=
   ************* Key=*, VarName=COOLING COIL TOTAL HEATING ENERGY, Frequency=
   ************* There are 34 unused schedules in input.
   ************* There are 388 unused week schedules in input.
   ************* There are 396 unused day schedules in input.
   ************* Use Output:Diagnostics,DisplayUnusedSchedules; to see them.
   *************
   ************* ===== Recurring Error Summary =====
   ************* The following recurring error messages occurred.
   *************
   *************  ** Warning ** "TOTAL HOT WATER LOAD" - Target water temperature should be less than or equal to the hot water temperature error continues...
   *************  **   ~~~   **   This error occurred 120871 total times;
   *************  **   ~~~   **   during Warmup 0 times;
   *************  **   ~~~   **   during Sizing 0 times.
   *************  **   ~~~   **   Max=10.492364  Min=4.847199E-004
   *************
   *************  ** Warning ** SimHVAC: Exceeding Maximum iterations for all HVAC loops, during ANNUAL continues
   *************  **   ~~~   **   This error occurred 4 total times;
   *************  **   ~~~   **   during Warmup 0 times;
   *************  **   ~~~   **   during Sizing 0 times.
   *************
   *************
   ************* ===== Final Error Summary =====
   ************* The following error categories occurred.  Consider correcting or noting.
   ************* Nominally Unused Constructions
   ************* ..The nominally unused constructions warning is provided to alert you to potential conditions that can cause
   ************* ..extra time during simulation. Each construction is calculated by the algorithm indicated in the HeatBalanceAlgorithm
   ************* ..object. You may remove the constructions indicated (when you use the DisplayExtraWarnings option).
   *************
   ************* EnergyPlus Warmup Error Summary. During Warmup: 0 Warning; 0 Severe Errors.
   ************* EnergyPlus Sizing Error Summary. During Sizing: 4 Warning; 0 Severe Errors.
   ************* EnergyPlus Completed Successfully-- 120907 Warning; 0 Severe Errors; Elapsed Time=00hr 01min 32.45sec
