Program Version,EnergyPlus, Version 22.2.0-c249759bad, YMD=2023.09.01 15:08,
   ************* Beginning Zone Sizing Calculations
   ** Warning ** ProcessScheduleInput: Schedule:Constant="ALWAYS ON DISCRETE", Schedule Type Limits Name="ONOFF" not found -- will not be validated
   ** Warning ** Foundation:Kiva="KIVA FOUNDATION", no Interior Horizontal Insulation Material Name defined
   **   ~~~   ** Interior Horizontal Insulation Depth will not be used.
   ** Warning ** CheckUsedConstructions: There are 15 nominally unused constructions in input.
   **   ~~~   ** Each Unused construction is shown.
   ************* Construction=INTERIOR FLOOR
   ************* Construction=INTERIOR WINDOW
   ************* Construction=EXTERIOR DOOR
   ************* Construction=INTERIOR DOOR
   ************* Construction=GABLE CONSTRUCTION
   ************* Construction=CRAWL_FLOOR
   ************* Construction=INSULATED PIPE
   ************* Construction=PLAIN PIPE
   ************* Construction=TDD PIPE
   ************* Construction=TDD DOME
   ************* Construction=TDD DIFFUSER
   ************* Construction=CRAWL WALL
   ************* Construction=CEILING-FLOOR-LAYER
   ************* Construction=SLAB CONSTRUCTION W FULL R10 INSULATION
   ************* Construction=SLAB CONSTRUCTION W FULL R5 INSULATION
   ** Warning ** GetDXCoils: Coil:Heating:DX:SingleSpeed="DX_HEATING_COIL" curve values
   **   ~~~   ** ... Defrost Energy Input Ratio Function of Temperature Curve Name = DEFROSTEIR output is not equal to 1.0 (+ or - 10%) at rated conditions.
   **   ~~~   ** ... Curve output at rated conditions = 0.152
   ************* Beginning System Sizing Calculations
   ************* Beginning Plant Sizing Calculations
   ** Warning ** SizeDXCoil Coil:Cooling:DX:SingleSpeed DX_COOLING_COIL
   **   ~~~   ** ...Gross Rated Total Cooling Capacity [W] will be limited by the maximum rated volume flow per rated total capacity ratio.
   **   ~~~   ** ...DX coil volume flow rate ( m3/s ) = 0.361491
   **   ~~~   ** ...Requested capacity ( W ) = 5616.960
   **   ~~~   ** ...Requested flow/capacity ratio ( m3/s/W ) = 6.435E-005
   **   ~~~   ** ...Maximum flow/capacity ratio ( m3/s/W ) = 6.041E-005
   **   ~~~   ** ...Adjusted capacity ( W ) = 5983.968
   ** Warning ** Coil:WaterHeating:AirToWaterHeatPump:Wrapped "HEAT PUMP WATER HEATER EVAPORATOR": Rated air volume flow rate per watt of rated total water heating capacity is out of range
   **   ~~~   ** Min Rated Vol Flow Per Watt=[4.027E-005], Rated Vol Flow Per Watt=[1.386E-004], Max Rated Vol Flow Per Watt=[8.056E-005]. See Input-Output Reference Manual for valid range.
   ** Warning ** Water heater = WATER HEATER TANK:  Recovery Efficiency and Energy Factor could not be calculated during the test for standard ratings
   **   ~~~   ** Setpoint was never recovered and/or heater never turned on
   ** Warning ** Check input. Pump nominal power or motor efficiency is set to 0, for pump=MAINS PRESSURE
   ** Warning ** Output:Meter: invalid Key Name="ELECTRIC_RANGE:INTERIOREQUIPMENT:ELECTRICITY" - not found.
   ** Warning ** Output:Meter: invalid Key Name="ELECTRIC_DRYER:INTERIOREQUIPMENT:ELECTRICITY" - not found.
   ** Warning ** Output:Meter: invalid Key Name="HEATRECOVERY:ELECTRICITY" - not found.
   ** Warning ** Output:Meter: invalid Key Name="HEATING:NATURALGAS" - not found.
   ** Warning ** Output:Meter: invalid Key Name="WATERSYSTEMS:NATURALGAS" - not found.
   ** Warning ** Output:Meter: invalid Key Name="PROPANE:FACILITY" - not found.
   ** Warning ** Output:Meter: invalid Key Name="HEATING:PROPANE" - not found.
   ************* Testing Individual Branch Integrity
   ************* All Branches passed integrity testing
   ************* Testing Individual Supply Air Path Integrity
   ************* All Supply Air Paths passed integrity testing
   ************* Testing Individual Return Air Path Integrity
   ************* All Return Air Paths passed integrity testing
   ************* No node connection errors were found.
   ************* Beginning Simulation
   ** Warning ** AirflowNetwork::Solver::validate_distribution: Heat pump water heater is simulated along with an AirflowNetwork but is not included in the AirflowNetwork.
   ** Warning ** CalcEquipmentFlowRates: "TOTAL HOT WATER LOAD" - Target water temperature is greater than the hot water temperature by (1.63 C)
   **   ~~~   **  Environment=EXTREME_WINTER, at Simulation time=01/18 06:00 - 06:15
   **   ~~~   ** ...target water temperature     = 53.33 C
   **   ~~~   ** ...hot water temperature        = 51.70 C
   **   ~~~   ** ...Target water temperature should be less than or equal to the hot water temperature. Verify temperature setpoints and schedules.
   ** Warning ** SimHVAC: Maximum iterations (20) exceeded for all HVAC loops, at ANNUAL, 02/11 18:30 - 18:34
   **   ~~~   ** The solution for one or more of the Air Loop HVAC systems did not appear to converge
   **   ~~~   ** Air System Named = CENTRAL SYSTEM did not converge for mass flow rate
   **   ~~~   ** Check values should be zero. Most Recent values listed first.
   **   ~~~   ** Demand-to-Supply interface mass flow rate check value iteration history trace: 0.120336,0.120336,0.120336,0.120336,0.120336,0.120336,0.120336,0.120336,0.120336,0.120336,
   **   ~~~   ** Supply-to-demand interface deck 1 mass flow rate check value iteration history trace: 0.120336,0.120336,0.120336,0.120336,0.120336,0.120336,0.120336,0.120336,0.120336,0.120336,
   **   ~~~   ** Air System Named = CENTRAL SYSTEM did not converge for energy
   **   ~~~   ** Check values should be zero. Most Recent values listed first.
   **   ~~~   ** Demand-to-Supply interface energy check value iteration history trace: 2373.501063,2373.501063,2373.501063,2373.501063,2373.501063,2373.501063,2373.501063,2373.501063,2373.501063,2373.501062,
   **   ~~~   ** Supply-to-demand interface deck 1 energy check value iteration history trace: 3561.063047,3561.063047,3561.063047,3561.063046,3561.063046,3561.063046,3561.063046,3561.063046,3561.063046,3561.063045,
   ** Warning ** SimHVAC: Maximum iterations (20) exceeded for all HVAC loops, at ANNUAL, 02/15 15:45 - 16:00
   **   ~~~   ** The solution for one or more of the Air Loop HVAC systems did not appear to converge
   **   ~~~   ** Air System Named = CENTRAL SYSTEM did not converge for mass flow rate
   **   ~~~   ** Check values should be zero. Most Recent values listed first.
   **   ~~~   ** Demand-to-Supply interface mass flow rate check value iteration history trace: 0.102368,0.102368,0.102368,0.102368,0.102368,0.102368,0.102368,0.102368,0.102368,0.102368,
   **   ~~~   ** Supply-to-demand interface deck 1 mass flow rate check value iteration history trace: 0.102368,0.102368,0.102368,0.102368,0.102368,0.102368,0.102368,0.102368,0.102368,0.102368,
   **   ~~~   ** Air System Named = CENTRAL SYSTEM did not converge for energy
   **   ~~~   ** Check values should be zero. Most Recent values listed first.
   **   ~~~   ** Demand-to-Supply interface energy check value iteration history trace: 2022.957743,2022.957743,2022.957743,2022.957743,2022.957743,2022.957743,2022.957742,2022.957742,2022.957742,2022.957742,
   **   ~~~   ** Supply-to-demand interface deck 1 energy check value iteration history trace: 3090.216250,3090.216250,3090.216249,3090.216249,3090.216249,3090.216249,3090.216248,3090.216248,3090.216248,3090.216248,
   ** Warning ** SimHVAC: Maximum iterations (20) exceeded for all HVAC loops, at ANNUAL, 03/15 20:45 - 21:00
   **   ~~~   ** The solution for one or more of the Air Loop HVAC systems did not appear to converge
   **   ~~~   ** Air System Named = CENTRAL SYSTEM did not converge for mass flow rate
   **   ~~~   ** Check values should be zero. Most Recent values listed first.
   **   ~~~   ** Demand-to-Supply interface mass flow rate check value iteration history trace: 0.119044,0.119044,0.119044,0.119044,0.119044,0.119044,0.119044,0.119044,0.119044,0.119044,
   **   ~~~   ** Supply-to-demand interface deck 1 mass flow rate check value iteration history trace: 0.119044,0.119044,0.119044,0.119044,0.119044,0.119044,0.119044,0.119044,0.119044,0.119044,
   **   ~~~   ** Air System Named = CENTRAL SYSTEM did not converge for energy
   **   ~~~   ** Check values should be zero. Most Recent values listed first.
   **   ~~~   ** Demand-to-Supply interface energy check value iteration history trace: 2351.031805,2351.031804,2351.031804,2351.031804,2351.031804,2351.031804,2351.031804,2351.031803,2351.031803,2351.031803,
   **   ~~~   ** Supply-to-demand interface deck 1 energy check value iteration history trace: 3493.303105,3493.303105,3493.303104,3493.303104,3493.303104,3493.303104,3493.303103,3493.303103,3493.303103,3493.303103,
   ** Warning ** SimHVAC: Maximum iterations (20) exceeded for all HVAC loops, at ANNUAL, 03/31 15:45 - 16:00
   **   ~~~   ** The solution for one or more of the Air Loop HVAC systems did not appear to converge
   **   ~~~   ** Air System Named = CENTRAL SYSTEM did not converge for mass flow rate
   **   ~~~   ** Check values should be zero. Most Recent values listed first.
   **   ~~~   ** Demand-to-Supply interface mass flow rate check value iteration history trace: 8.325054E-002,8.325054E-002,8.325054E-002,8.325054E-002,8.325054E-002,8.325054E-002,8.325054E-002,8.325054E-002,8.325054E-002,8.325054E-002,
   **   ~~~   ** Supply-to-demand interface deck 1 mass flow rate check value iteration history trace: 8.325054E-002,8.325054E-002,8.325054E-002,8.325054E-002,8.325054E-002,8.325054E-002,8.325054E-002,8.325054E-002,8.325054E-002,8.325054E-002,
   **   ~~~   ** Air System Named = CENTRAL SYSTEM did not converge for energy
   **   ~~~   ** Check values should be zero. Most Recent values listed first.
   **   ~~~   ** Demand-to-Supply interface energy check value iteration history trace: 1645.420889,1645.420889,1645.420889,1645.420889,1645.420889,1645.420889,1645.420889,1645.420889,1645.420889,1645.420888,
   **   ~~~   ** Supply-to-demand interface deck 1 energy check value iteration history trace: 2764.466254,2764.466253,2764.466253,2764.466253,2764.466253,2764.466253,2764.466253,2764.466253,2764.466252,2764.466252,
   ** Warning ** SimHVAC: Maximum iterations (20) exceeded for all HVAC loops, at ANNUAL, 06/24 10:30 - 10:45
   **   ~~~   ** The solution for one or more of the Air Loop HVAC systems did not appear to converge
   **   ~~~   ** Air System Named = CENTRAL SYSTEM did not converge for mass flow rate
   **   ~~~   ** Check values should be zero. Most Recent values listed first.
   **   ~~~   ** Demand-to-Supply interface mass flow rate check value iteration history trace: 3.301731E-002,3.301731E-002,3.301731E-002,3.301731E-002,3.301731E-002,3.301731E-002,3.301731E-002,3.301731E-002,3.301731E-002,3.301731E-002,
   **   ~~~   ** Supply-to-demand interface deck 1 mass flow rate check value iteration history trace: 3.301731E-002,3.301731E-002,3.301731E-002,3.301731E-002,3.301731E-002,3.301731E-002,3.301731E-002,3.301731E-002,3.301731E-002,3.301731E-002,
   **   ~~~   ** Air System Named = CENTRAL SYSTEM did not converge for energy
   **   ~~~   ** Check values should be zero. Most Recent values listed first.
   **   ~~~   ** Demand-to-Supply interface energy check value iteration history trace: 776.650602,776.650602,776.650603,776.650603,776.650603,776.650603,776.650603,776.650603,776.650603,776.650603,
   **   ~~~   ** Supply-to-demand interface deck 1 energy check value iteration history trace: 374.243384,374.243384,374.243384,374.243384,374.243384,374.243384,374.243384,374.243384,374.243384,374.243384,
   ** Warning ** SimHVAC: Maximum iterations (20) exceeded for all HVAC loops, at ANNUAL, 09/30 09:45 - 10:00
   **   ~~~   ** The solution for one or more of the Air Loop HVAC systems did not appear to converge
   **   ~~~   ** Air System Named = CENTRAL SYSTEM did not converge for mass flow rate
   **   ~~~   ** Check values should be zero. Most Recent values listed first.
   **   ~~~   ** Demand-to-Supply interface mass flow rate check value iteration history trace: 8.336358E-002,8.336358E-002,8.336358E-002,8.336358E-002,8.336358E-002,8.336358E-002,8.336358E-002,8.336358E-002,8.336358E-002,8.336358E-002,
   **   ~~~   ** Supply-to-demand interface deck 1 mass flow rate check value iteration history trace: 8.336358E-002,8.336358E-002,8.336358E-002,8.336358E-002,8.336358E-002,8.336358E-002,8.336358E-002,8.336358E-002,8.336358E-002,8.336358E-002,
   **   ~~~   ** Air System Named = CENTRAL SYSTEM did not converge for energy
   **   ~~~   ** Check values should be zero. Most Recent values listed first.
   **   ~~~   ** Demand-to-Supply interface energy check value iteration history trace: 1982.332446,1982.332446,1982.332447,1982.332447,1982.332447,1982.332447,1982.332447,1982.332447,1982.332447,1982.332447,
   **   ~~~   ** Supply-to-demand interface deck 1 energy check value iteration history trace: 1082.776650,1082.776650,1082.776650,1082.776650,1082.776651,1082.776651,1082.776651,1082.776651,1082.776651,1082.776651,
   ** Warning ** SimHVAC: Maximum iterations (20) exceeded for all HVAC loops, at ANNUAL, 10/05 17:23 - 17:26
   **   ~~~   ** The solution for one or more of the Air Loop HVAC systems did not appear to converge
   **   ~~~   ** Air System Named = CENTRAL SYSTEM did not converge for mass flow rate
   **   ~~~   ** Check values should be zero. Most Recent values listed first.
   **   ~~~   ** Demand-to-Supply interface mass flow rate check value iteration history trace: 0.167227,0.167227,0.167227,0.167227,0.167227,0.167227,0.167227,0.167227,0.167227,0.167227,
   **   ~~~   ** Supply-to-demand interface deck 1 mass flow rate check value iteration history trace: 0.167227,0.167227,0.167227,0.167227,0.167227,0.167227,0.167227,0.167227,0.167227,0.167227,
   **   ~~~   ** Air System Named = CENTRAL SYSTEM did not converge for energy
   **   ~~~   ** Check values should be zero. Most Recent values listed first.
   **   ~~~   ** Demand-to-Supply interface energy check value iteration history trace: 3937.064031,3937.064032,3937.064033,3937.064034,3937.064035,3937.064035,3937.064036,3937.064037,3937.064038,3937.064038,
   **   ~~~   ** Supply-to-demand interface deck 1 energy check value iteration history trace: 1944.989604,1944.989605,1944.989605,1944.989606,1944.989606,1944.989606,1944.989607,1944.989607,1944.989607,1944.989608,
   ** Warning ** SimHVAC: Maximum iterations (20) exceeded for all HVAC loops, at ANNUAL, 10/05 19:53 - 20:00
   **   ~~~   ** The solution for one or more of the Air Loop HVAC systems did not appear to converge
   **   ~~~   ** Air System Named = CENTRAL SYSTEM did not converge for mass flow rate
   **   ~~~   ** Check values should be zero. Most Recent values listed first.
   **   ~~~   ** Demand-to-Supply interface mass flow rate check value iteration history trace: 0.128322,0.128322,0.128322,0.128322,0.128322,0.128322,0.128322,0.128322,0.128322,0.128322,
   **   ~~~   ** Supply-to-demand interface deck 1 mass flow rate check value iteration history trace: 0.128322,0.128322,0.128322,0.128322,0.128322,0.128322,0.128322,0.128322,0.128322,0.128322,
   **   ~~~   ** Air System Named = CENTRAL SYSTEM did not converge for energy
   **   ~~~   ** Check values should be zero. Most Recent values listed first.
   **   ~~~   ** Demand-to-Supply interface energy check value iteration history trace: 3019.730290,3019.730291,3019.730291,3019.730292,3019.730293,3019.730293,3019.730294,3019.730295,3019.730295,3019.730296,
   **   ~~~   ** Supply-to-demand interface deck 1 energy check value iteration history trace: 1504.203861,1504.203861,1504.203862,1504.203862,1504.203862,1504.203863,1504.203863,1504.203863,1504.203864,1504.203864,
   ** Warning ** SimHVAC: Maximum iterations (20) exceeded for all HVAC loops, at ANNUAL, 10/10 08:06 - 08:09
   **   ~~~   ** The solution for one or more of the Air Loop HVAC systems did not appear to converge
   **   ~~~   ** Air System Named = CENTRAL SYSTEM did not converge for mass flow rate
   **   ~~~   ** Check values should be zero. Most Recent values listed first.
   **   ~~~   ** Demand-to-Supply interface mass flow rate check value iteration history trace: 0.125609,0.125609,0.125609,0.125609,0.125609,0.125609,0.125609,0.125609,0.125609,0.125609,
   **   ~~~   ** Supply-to-demand interface deck 1 mass flow rate check value iteration history trace: 0.125609,0.125609,0.125609,0.125609,0.125609,0.125609,0.125609,0.125609,0.125609,0.125609,
   **   ~~~   ** Air System Named = CENTRAL SYSTEM did not converge for energy
   **   ~~~   ** Check values should be zero. Most Recent values listed first.
   **   ~~~   ** Demand-to-Supply interface energy check value iteration history trace: 2489.041775,2489.041774,2489.041774,2489.041774,2489.041774,2489.041774,2489.041773,2489.041773,2489.041773,2489.041773,
   **   ~~~   ** Supply-to-demand interface deck 1 energy check value iteration history trace: 3687.130313,3687.130312,3687.130312,3687.130312,3687.130311,3687.130311,3687.130311,3687.130311,3687.130310,3687.130310,
   ** Warning ** SimHVAC: Maximum iterations (20) exceeded for all HVAC loops, at ANNUAL, 10/15 09:35 - 09:40
   **   ~~~   ** The solution for one or more of the Air Loop HVAC systems did not appear to converge
   **   ~~~   ** Air System Named = CENTRAL SYSTEM did not converge for mass flow rate
   **   ~~~   ** Check values should be zero. Most Recent values listed first.
   **   ~~~   ** Demand-to-Supply interface mass flow rate check value iteration history trace: 6.294744E-002,6.294744E-002,6.294744E-002,6.294744E-002,6.294744E-002,6.294744E-002,6.294744E-002,6.294744E-002,6.294744E-002,6.294744E-002,
   **   ~~~   ** Supply-to-demand interface deck 1 mass flow rate check value iteration history trace: 6.294744E-002,6.294744E-002,6.294744E-002,6.294744E-002,6.294744E-002,6.294744E-002,6.294744E-002,6.294744E-002,6.294744E-002,6.294744E-002,
   **   ~~~   ** Air System Named = CENTRAL SYSTEM did not converge for energy
   **   ~~~   ** Check values should be zero. Most Recent values listed first.
   **   ~~~   ** Demand-to-Supply interface energy check value iteration history trace: 1238.528055,1238.528055,1238.528055,1238.528055,1238.528055,1238.528055,1238.528055,1238.528055,1238.528055,1238.528055,
   **   ~~~   ** Supply-to-demand interface deck 1 energy check value iteration history trace: 2295.552942,2295.552942,2295.552942,2295.552942,2295.552941,2295.552941,2295.552941,2295.552941,2295.552941,2295.552941,
   ** Warning ** SimHVAC: Maximum iterations (20) exceeded for all HVAC loops, at ANNUAL, 10/16 07:08 - 07:15
   **   ~~~   ** The solution for one or more of the Air Loop HVAC systems did not appear to converge
   **   ~~~   ** Air System Named = CENTRAL SYSTEM did not converge for mass flow rate
   **   ~~~   ** Check values should be zero. Most Recent values listed first.
   **   ~~~   ** Demand-to-Supply interface mass flow rate check value iteration history trace: 6.623818E-002,6.623818E-002,6.623818E-002,6.623818E-002,6.623818E-002,6.623818E-002,6.623818E-002,6.623818E-002,6.623818E-002,6.623818E-002,
   **   ~~~   ** Supply-to-demand interface deck 1 mass flow rate check value iteration history trace: 6.623818E-002,6.623818E-002,6.623818E-002,6.623818E-002,6.623818E-002,6.623818E-002,6.623818E-002,6.623818E-002,6.623818E-002,6.623818E-002,
   **   ~~~   ** Air System Named = CENTRAL SYSTEM did not converge for energy
   **   ~~~   ** Check values should be zero. Most Recent values listed first.
   **   ~~~   ** Demand-to-Supply interface energy check value iteration history trace: 1305.982411,1305.982411,1305.982411,1305.982410,1305.982410,1305.982410,1305.982410,1305.982410,1305.982410,1305.982410,
   **   ~~~   ** Supply-to-demand interface deck 1 energy check value iteration history trace: 2276.052242,2276.052242,2276.052242,2276.052242,2276.052242,2276.052242,2276.052242,2276.052242,2276.052242,2276.052242,
   ** Warning ** SimHVAC: Maximum iterations (20) exceeded for all HVAC loops, at ANNUAL, 10/17 07:30 - 07:45
   **   ~~~   ** The solution for one or more of the Air Loop HVAC systems did not appear to converge
   **   ~~~   ** Air System Named = CENTRAL SYSTEM did not converge for mass flow rate
   **   ~~~   ** Check values should be zero. Most Recent values listed first.
   **   ~~~   ** Demand-to-Supply interface mass flow rate check value iteration history trace: 6.598941E-002,6.598941E-002,6.598941E-002,6.598941E-002,6.598941E-002,6.598941E-002,6.598941E-002,6.598941E-002,6.598941E-002,6.598941E-002,
   **   ~~~   ** Supply-to-demand interface deck 1 mass flow rate check value iteration history trace: 6.598941E-002,6.598941E-002,6.598941E-002,6.598941E-002,6.598941E-002,6.598941E-002,6.598941E-002,6.598941E-002,6.598941E-002,6.598941E-002,
   **   ~~~   ** Air System Named = CENTRAL SYSTEM did not converge for energy
   **   ~~~   ** Check values should be zero. Most Recent values listed first.
   **   ~~~   ** Demand-to-Supply interface energy check value iteration history trace: 1307.472008,1307.472008,1307.472008,1307.472008,1307.472008,1307.472008,1307.472008,1307.472008,1307.472008,1307.472008,
   **   ~~~   ** Supply-to-demand interface deck 1 energy check value iteration history trace: 2260.475818,2260.475818,2260.475818,2260.475818,2260.475818,2260.475818,2260.475818,2260.475818,2260.475818,2260.475817,
   ** Warning ** SimHVAC: Maximum iterations (20) exceeded for all HVAC loops, at ANNUAL, 10/17 07:30 - 07:38
   **   ~~~   ** The solution for one or more of the Air Loop HVAC systems did not appear to converge
   **   ~~~   ** Air System Named = CENTRAL SYSTEM did not converge for mass flow rate
   **   ~~~   ** Check values should be zero. Most Recent values listed first.
   **   ~~~   ** Demand-to-Supply interface mass flow rate check value iteration history trace: 6.625777E-002,6.625777E-002,6.625777E-002,6.625777E-002,6.625777E-002,6.625777E-002,6.625777E-002,6.625777E-002,6.625777E-002,6.625777E-002,
   **   ~~~   ** Supply-to-demand interface deck 1 mass flow rate check value iteration history trace: 6.625777E-002,6.625777E-002,6.625777E-002,6.625777E-002,6.625777E-002,6.625777E-002,6.625777E-002,6.625777E-002,6.625777E-002,6.625777E-002,
   **   ~~~   ** Air System Named = CENTRAL SYSTEM did not converge for energy
   **   ~~~   ** Check values should be zero. Most Recent values listed first.
   **   ~~~   ** Demand-to-Supply interface energy check value iteration history trace: 1312.821578,1312.821578,1312.821578,1312.821578,1312.821578,1312.821578,1312.821578,1312.821578,1312.821578,1312.821578,
   **   ~~~   ** Supply-to-demand interface deck 1 energy check value iteration history trace: 2269.627257,2269.627256,2269.627256,2269.627256,2269.627256,2269.627256,2269.627256,2269.627256,2269.627256,2269.627256,
   ** Warning ** SimHVAC: Maximum iterations (20) exceeded for all HVAC loops, at ANNUAL, 10/26 19:30 - 19:45
   **   ~~~   ** The solution for one or more of the Air Loop HVAC systems did not appear to converge
   **   ~~~   ** Air System Named = CENTRAL SYSTEM did not converge for mass flow rate
   **   ~~~   ** Check values should be zero. Most Recent values listed first.
   **   ~~~   ** Demand-to-Supply interface mass flow rate check value iteration history trace: 7.501802E-002,7.501802E-002,7.501802E-002,7.501802E-002,7.501802E-002,7.501802E-002,7.501802E-002,7.501802E-002,7.501802E-002,7.501802E-002,
   **   ~~~   ** Supply-to-demand interface deck 1 mass flow rate check value iteration history trace: 7.501802E-002,7.501802E-002,7.501802E-002,7.501802E-002,7.501802E-002,7.501802E-002,7.501802E-002,7.501802E-002,7.501802E-002,7.501802E-002,
   **   ~~~   ** Air System Named = CENTRAL SYSTEM did not converge for energy
   **   ~~~   ** Check values should be zero. Most Recent values listed first.
   **   ~~~   ** Demand-to-Supply interface energy check value iteration history trace: 1482.967007,1482.967007,1482.967007,1482.967006,1482.967006,1482.967006,1482.967006,1482.967006,1482.967006,1482.967006,
   **   ~~~   ** Supply-to-demand interface deck 1 energy check value iteration history trace: 2562.102614,2562.102614,2562.102614,2562.102614,2562.102614,2562.102614,2562.102614,2562.102613,2562.102613,2562.102613,
   ************* Simulation Error Summary *************
   ** Warning ** The following Report Variables were requested but not generated -- check.rdd file
   **   ~~~   ** Either the IDF did not contain these elements, the variable name is misspelled,
   **   ~~~   ** or the requested variable is an advanced output which requires Output : Diagnostics, DisplayAdvancedReportVariables;
   ************* Key=*, VarName=BASEBOARD TOTAL HEATING ENERGY, Frequency=
   ************* Key=*, VarName=WATER HEATER NATURALGAS ENERGY, Frequency=
   ************* Key=*, VarName=COOLING COIL TOTAL HEATING ENERGY, Frequency=
   ************* There are 34 unused schedules in input.
   ************* There are 388 unused week schedules in input.
   ************* There are 396 unused day schedules in input.
   ************* Use Output:Diagnostics,DisplayUnusedSchedules; to see them.
   *************
   ************* ===== Recurring Error Summary =====
   ************* The following recurring error messages occurred.
   *************
   *************  ** Warning ** "TOTAL HOT WATER LOAD" - Target water temperature should be less than or equal to the hot water temperature error continues...
   *************  **   ~~~   **   This error occurred 106151 total times;
   *************  **   ~~~   **   during Warmup 0 times;
   *************  **   ~~~   **   during Sizing 0 times.
   *************  **   ~~~   **   Max=10.867559  Min=4.704991E-004
   *************
   *************
   ************* ===== Final Error Summary =====
   ************* The following error categories occurred.  Consider correcting or noting.
   ************* Nominally Unused Constructions
   ************* ..The nominally unused constructions warning is provided to alert you to potential conditions that can cause
   ************* ..extra time during simulation. Each construction is calculated by the algorithm indicated in the HeatBalanceAlgorithm
   ************* ..object. You may remove the constructions indicated (when you use the DisplayExtraWarnings option).
   *************
   ************* EnergyPlus Warmup Error Summary. During Warmup: 1 Warning; 0 Severe Errors.
   ************* EnergyPlus Sizing Error Summary. During Sizing: 4 Warning; 0 Severe Errors.
   ************* EnergyPlus Completed Successfully-- 106183 Warning; 0 Severe Errors; Elapsed Time=00hr 05min 34.71sec
