Program Version,EnergyPlus, Version 22.2.0-c249759bad, YMD=2023.09.01 19:37,
   ************* Beginning Zone Sizing Calculations
   ** Warning ** ProcessScheduleInput: Schedule:Constant="ALWAYS ON DISCRETE", Schedule Type Limits Name="ONOFF" not found -- will not be validated
   ** Warning ** Foundation:Kiva="KIVA FOUNDATION", no Interior Horizontal Insulation Material Name defined
   **   ~~~   ** Interior Horizontal Insulation Depth will not be used.
   ** Warning ** CheckUsedConstructions: There are 15 nominally unused constructions in input.
   **   ~~~   ** Each Unused construction is shown.
   ************* Construction=INTERIOR FLOOR
   ************* Construction=INTERIOR WINDOW
   ************* Construction=EXTERIOR DOOR
   ************* Construction=INTERIOR DOOR
   ************* Construction=GABLE CONSTRUCTION
   ************* Construction=CRAWL_FLOOR
   ************* Construction=INSULATED PIPE
   ************* Construction=PLAIN PIPE
   ************* Construction=TDD PIPE
   ************* Construction=TDD DOME
   ************* Construction=TDD DIFFUSER
   ************* Construction=CRAWL WALL
   ************* Construction=CEILING-FLOOR-LAYER
   ************* Construction=SLAB CONSTRUCTION W FULL R10 INSULATION
   ************* Construction=SLAB CONSTRUCTION W FULL R5 INSULATION
   ** Warning ** GetDXCoils: Coil:Heating:DX:SingleSpeed="DX_HEATING_COIL" curve values
   **   ~~~   ** ... Defrost Energy Input Ratio Function of Temperature Curve Name = DEFROSTEIR output is not equal to 1.0 (+ or - 10%) at rated conditions.
   **   ~~~   ** ... Curve output at rated conditions = 0.152
   ************* Beginning System Sizing Calculations
   ************* Beginning Plant Sizing Calculations
   ** Warning ** SizeDXCoil Coil:Cooling:DX:SingleSpeed DX_COOLING_COIL
   **   ~~~   ** ...Gross Rated Total Cooling Capacity [W] will be limited by the maximum rated volume flow per rated total capacity ratio.
   **   ~~~   ** ...DX coil volume flow rate ( m3/s ) = 0.382210
   **   ~~~   ** ...Requested capacity ( W ) = 5806.735
   **   ~~~   ** ...Requested flow/capacity ratio ( m3/s/W ) = 6.582E-005
   **   ~~~   ** ...Maximum flow/capacity ratio ( m3/s/W ) = 6.041E-005
   **   ~~~   ** ...Adjusted capacity ( W ) = 6326.942
   ** Warning ** Coil:WaterHeating:AirToWaterHeatPump:Wrapped "HEAT PUMP WATER HEATER EVAPORATOR": Rated air volume flow rate per watt of rated total water heating capacity is out of range
   **   ~~~   ** Min Rated Vol Flow Per Watt=[4.027E-005], Rated Vol Flow Per Watt=[1.510E-004], Max Rated Vol Flow Per Watt=[8.056E-005]. See Input-Output Reference Manual for valid range.
   ************* SizeFan: : Potential issue with equipment sizing for Fan:OnOff HEAT PUMP WATER HEATER FAN
   **   ~~~   ** User-Specified Maximum Flow Rate [m3/s] = 0.22653
   **   ~~~   ** differs from Design Size Maximum Flow Rate [m3/s] = 7.55250E-002
   **   ~~~   ** This may, or may not, indicate mismatched component sizes.
   **   ~~~   ** Verify that the value entered is intended and is consistent with other components.
   ** Warning ** Water heater = WATER HEATER TANK:  Recovery Efficiency and Energy Factor could not be calculated during the test for standard ratings
   **   ~~~   ** Setpoint was never recovered and/or heater never turned on
   ** Warning ** Check input. Pump nominal power or motor efficiency is set to 0, for pump=MAINS PRESSURE
   ** Warning ** Output:Meter: invalid Key Name="ELECTRIC_RANGE:INTERIOREQUIPMENT:ELECTRICITY" - not found.
   ** Warning ** Output:Meter: invalid Key Name="ELECTRIC_DRYER:INTERIOREQUIPMENT:ELECTRICITY" - not found.
   ** Warning ** Output:Meter: invalid Key Name="HEATRECOVERY:ELECTRICITY" - not found.
   ** Warning ** Output:Meter: invalid Key Name="HEATING:NATURALGAS" - not found.
   ** Warning ** Output:Meter: invalid Key Name="WATERSYSTEMS:NATURALGAS" - not found.
   ** Warning ** Output:Meter: invalid Key Name="PROPANE:FACILITY" - not found.
   ** Warning ** Output:Meter: invalid Key Name="HEATING:PROPANE" - not found.
   ************* Testing Individual Branch Integrity
   ************* All Branches passed integrity testing
   ************* Testing Individual Supply Air Path Integrity
   ************* All Supply Air Paths passed integrity testing
   ************* Testing Individual Return Air Path Integrity
   ************* All Return Air Paths passed integrity testing
   ************* No node connection errors were found.
   ************* Beginning Simulation
   ** Warning ** AirflowNetwork::Solver::validate_distribution: Heat pump water heater is simulated along with an AirflowNetwork but is not included in the AirflowNetwork.
   ** Warning ** CalcEquipmentFlowRates: "TOTAL HOT WATER LOAD" - Target water temperature is greater than the hot water temperature by (2.41 C)
   **   ~~~   **  Environment=EXTREME_WINTER, at Simulation time=01/20 06:00 - 06:15
   **   ~~~   ** ...target water temperature     = 53.33 C
   **   ~~~   ** ...hot water temperature        = 50.93 C
   **   ~~~   ** ...Target water temperature should be less than or equal to the hot water temperature. Verify temperature setpoints and schedules.
   ** Severe  ** CheckWarmupConvergence: Loads Initialization, Zone="LIVING" did not converge after 25 warmup days.
   **   ~~~   ** See Warmup Convergence Information in .eio file for details.
   **   ~~~   ** ...Environment(RunPeriod)="ANNUAL"
   **   ~~~   ** ..Max Temp Comparison = 1.24E-002 vs Temperature Convergence Tolerance=5.00E-002 - Pass Convergence
   **   ~~~   ** ..Min Temp Comparison = 3.34E-004 vs Temperature Convergence Tolerance=5.00E-002 - Pass Convergence
   **   ~~~   ** ..Max Heat Load Comparison = 8.8516E-002 vs Loads Convergence Tolerance=5.00E-002 - Fail Convergence
   **   ~~~   ** ..Max Cool Load Comparison = 4.1017E-004 vs Loads Convergence Tolerance=5.00E-002 - Pass Convergence
   ** Warning ** SimHVAC: Maximum iterations (20) exceeded for all HVAC loops, at ANNUAL, 01/06 11:30 - 11:45
   **   ~~~   ** The solution for one or more of the Air Loop HVAC systems did not appear to converge
   **   ~~~   ** Air System Named = CENTRAL SYSTEM did not converge for mass flow rate
   **   ~~~   ** Check values should be zero. Most Recent values listed first.
   **   ~~~   ** Demand-to-Supply interface mass flow rate check value iteration history trace: 4.861642E-002,4.861642E-002,4.861642E-002,4.861642E-002,4.861642E-002,4.861642E-002,4.861642E-002,4.861642E-002,4.861642E-002,4.861642E-002,
   **   ~~~   ** Supply-to-demand interface deck 1 mass flow rate check value iteration history trace: 4.861642E-002,4.861642E-002,4.861642E-002,4.861642E-002,4.861642E-002,4.861642E-002,4.861642E-002,4.861642E-002,4.861642E-002,4.861642E-002,
   **   ~~~   ** Air System Named = CENTRAL SYSTEM did not converge for energy
   **   ~~~   ** Check values should be zero. Most Recent values listed first.
   **   ~~~   ** Demand-to-Supply interface energy check value iteration history trace: 963.252340,963.252340,963.252339,963.252339,963.252339,963.252339,963.252339,963.252339,963.252339,963.252339,
   **   ~~~   ** Supply-to-demand interface deck 1 energy check value iteration history trace: 1743.011614,1743.011614,1743.011614,1743.011614,1743.011614,1743.011613,1743.011613,1743.011613,1743.011613,1743.011613,
   ** Warning ** SimHVAC: Maximum iterations (20) exceeded for all HVAC loops, at ANNUAL, 02/23 17:00 - 17:04
   **   ~~~   ** The solution for one or more of the Air Loop HVAC systems did not appear to converge
   **   ~~~   ** Air System Named = CENTRAL SYSTEM did not converge for mass flow rate
   **   ~~~   ** Check values should be zero. Most Recent values listed first.
   **   ~~~   ** Demand-to-Supply interface mass flow rate check value iteration history trace: 9.184518E-002,9.184518E-002,9.184518E-002,9.184518E-002,9.184518E-002,9.184518E-002,9.184518E-002,9.184518E-002,9.184518E-002,9.184518E-002,
   **   ~~~   ** Supply-to-demand interface deck 1 mass flow rate check value iteration history trace: 9.184518E-002,9.184518E-002,9.184518E-002,9.184518E-002,9.184518E-002,9.184518E-002,9.184518E-002,9.184518E-002,9.184518E-002,9.184518E-002,
   **   ~~~   ** Air System Named = CENTRAL SYSTEM did not converge for energy
   **   ~~~   ** Check values should be zero. Most Recent values listed first.
   **   ~~~   ** Demand-to-Supply interface energy check value iteration history trace: 1815.683188,1815.683188,1815.683188,1815.683188,1815.683188,1815.683188,1815.683188,1815.683188,1815.683188,1815.683187,
   **   ~~~   ** Supply-to-demand interface deck 1 energy check value iteration history trace: 2778.589884,2778.589884,2778.589883,2778.589883,2778.589883,2778.589883,2778.589883,2778.589883,2778.589882,2778.589882,
   ** Warning ** SimHVAC: Maximum iterations (20) exceeded for all HVAC loops, at ANNUAL, 03/22 16:42 - 16:45
   **   ~~~   ** The solution for one or more of the Air Loop HVAC systems did not appear to converge
   **   ~~~   ** Air System Named = CENTRAL SYSTEM did not converge for mass flow rate
   **   ~~~   ** Check values should be zero. Most Recent values listed first.
   **   ~~~   ** Demand-to-Supply interface mass flow rate check value iteration history trace: 9.487939E-002,9.487939E-002,9.487939E-002,9.487939E-002,9.487939E-002,9.487939E-002,9.487939E-002,9.487939E-002,9.487939E-002,9.487939E-002,
   **   ~~~   ** Supply-to-demand interface deck 1 mass flow rate check value iteration history trace: 9.487939E-002,9.487939E-002,9.487939E-002,9.487939E-002,9.487939E-002,9.487939E-002,9.487939E-002,9.487939E-002,9.487939E-002,9.487939E-002,
   **   ~~~   ** Air System Named = CENTRAL SYSTEM did not converge for energy
   **   ~~~   ** Check values should be zero. Most Recent values listed first.
   **   ~~~   ** Demand-to-Supply interface energy check value iteration history trace: 1874.243549,1874.243549,1874.243549,1874.243549,1874.243548,1874.243548,1874.243548,1874.243548,1874.243548,1874.243548,
   **   ~~~   ** Supply-to-demand interface deck 1 energy check value iteration history trace: 2791.912288,2791.912288,2791.912288,2791.912287,2791.912287,2791.912287,2791.912287,2791.912287,2791.912286,2791.912286,
   ** Warning ** SimHVAC: Maximum iterations (20) exceeded for all HVAC loops, at ANNUAL, 03/29 20:15 - 20:30
   **   ~~~   ** The solution for one or more of the Air Loop HVAC systems did not appear to converge
   **   ~~~   ** Air System Named = CENTRAL SYSTEM did not converge for mass flow rate
   **   ~~~   ** Check values should be zero. Most Recent values listed first.
   **   ~~~   ** Demand-to-Supply interface mass flow rate check value iteration history trace: 7.972770E-002,7.972770E-002,7.972770E-002,7.972770E-002,7.972770E-002,7.972770E-002,7.972770E-002,7.972770E-002,7.972770E-002,7.972770E-002,
   **   ~~~   ** Supply-to-demand interface deck 1 mass flow rate check value iteration history trace: 7.972770E-002,7.972770E-002,7.972770E-002,7.972770E-002,7.972770E-002,7.972770E-002,7.972770E-002,7.972770E-002,7.972770E-002,7.972770E-002,
   **   ~~~   ** Air System Named = CENTRAL SYSTEM did not converge for energy
   **   ~~~   ** Check values should be zero. Most Recent values listed first.
   **   ~~~   ** Demand-to-Supply interface energy check value iteration history trace: 1577.132221,1577.132221,1577.132221,1577.132221,1577.132221,1577.132221,1577.132221,1577.132221,1577.132221,1577.132221,
   **   ~~~   ** Supply-to-demand interface deck 1 energy check value iteration history trace: 2648.661081,2648.661081,2648.661081,2648.661081,2648.661081,2648.661080,2648.661080,2648.661080,2648.661080,2648.661080,
   ** Warning ** SimHVAC: Maximum iterations (20) exceeded for all HVAC loops, at ANNUAL, 03/31 00:30 - 00:38
   **   ~~~   ** The solution for one or more of the Air Loop HVAC systems did not appear to converge
   **   ~~~   ** Air System Named = CENTRAL SYSTEM did not converge for mass flow rate
   **   ~~~   ** Check values should be zero. Most Recent values listed first.
   **   ~~~   ** Demand-to-Supply interface mass flow rate check value iteration history trace: 8.322826E-002,8.322826E-002,8.322826E-002,8.322826E-002,8.322826E-002,8.322826E-002,8.322826E-002,8.322826E-002,8.322826E-002,8.322826E-002,
   **   ~~~   ** Supply-to-demand interface deck 1 mass flow rate check value iteration history trace: 8.322826E-002,8.322826E-002,8.322826E-002,8.322826E-002,8.322826E-002,8.322826E-002,8.322826E-002,8.322826E-002,8.322826E-002,8.322826E-002,
   **   ~~~   ** Air System Named = CENTRAL SYSTEM did not converge for energy
   **   ~~~   ** Check values should be zero. Most Recent values listed first.
   **   ~~~   ** Demand-to-Supply interface energy check value iteration history trace: 1552.091637,1552.091636,1552.091636,1552.091636,1552.091636,1552.091636,1552.091636,1552.091636,1552.091636,1552.091636,
   **   ~~~   ** Supply-to-demand interface deck 1 energy check value iteration history trace: 2345.985492,2345.985492,2345.985492,2345.985492,2345.985492,2345.985491,2345.985491,2345.985491,2345.985491,2345.985491,
   ** Warning ** SimHVAC: Maximum iterations (20) exceeded for all HVAC loops, at ANNUAL, 03/31 12:00 - 12:15
   **   ~~~   ** The solution for one or more of the Air Loop HVAC systems did not appear to converge
   **   ~~~   ** Air System Named = CENTRAL SYSTEM did not converge for mass flow rate
   **   ~~~   ** Check values should be zero. Most Recent values listed first.
   **   ~~~   ** Demand-to-Supply interface mass flow rate check value iteration history trace: 5.461573E-002,5.461573E-002,5.461573E-002,5.461573E-002,5.461573E-002,5.461573E-002,5.461573E-002,5.461573E-002,5.461573E-002,5.461573E-002,
   **   ~~~   ** Supply-to-demand interface deck 1 mass flow rate check value iteration history trace: 5.461573E-002,5.461573E-002,5.461573E-002,5.461573E-002,5.461573E-002,5.461573E-002,5.461573E-002,5.461573E-002,5.461573E-002,5.461573E-002,
   **   ~~~   ** Air System Named = CENTRAL SYSTEM did not converge for energy
   **   ~~~   ** Check values should be zero. Most Recent values listed first.
   **   ~~~   ** Demand-to-Supply interface energy check value iteration history trace: 1081.019124,1081.019124,1081.019124,1081.019124,1081.019124,1081.019124,1081.019124,1081.019124,1081.019124,1081.019124,
   **   ~~~   ** Supply-to-demand interface deck 1 energy check value iteration history trace: 1924.111207,1924.111207,1924.111207,1924.111207,1924.111207,1924.111207,1924.111207,1924.111207,1924.111207,1924.111207,
   **   ~~~   ** Node named ZONE INLET NODE shows oscillating temperatures across iterations with a repeated value of 35.060153
   **   ~~~   ** Node named ZONE INLET NODE temperature [C] iteration history trace (most recent first): 35.060153,35.060153,35.060152,35.060152,35.060152,35.060152,35.060151,35.060151,35.060151,35.060151,
   ** Warning ** SimHVAC: Maximum iterations (20) exceeded for all HVAC loops, at ANNUAL, 04/09 23:00 - 23:15
   **   ~~~   ** The solution for one or more of the Air Loop HVAC systems did not appear to converge
   **   ~~~   ** Air System Named = CENTRAL SYSTEM did not converge for mass flow rate
   **   ~~~   ** Check values should be zero. Most Recent values listed first.
   **   ~~~   ** Demand-to-Supply interface mass flow rate check value iteration history trace: 6.750996E-002,6.750996E-002,6.750996E-002,6.750996E-002,6.750996E-002,6.750996E-002,6.750996E-002,6.750996E-002,6.750996E-002,6.750996E-002,
   **   ~~~   ** Supply-to-demand interface deck 1 mass flow rate check value iteration history trace: 6.750996E-002,6.750996E-002,6.750996E-002,6.750996E-002,6.750996E-002,6.750996E-002,6.750996E-002,6.750996E-002,6.750996E-002,6.750996E-002,
   **   ~~~   ** Air System Named = CENTRAL SYSTEM did not converge for energy
   **   ~~~   ** Check values should be zero. Most Recent values listed first.
   **   ~~~   ** Demand-to-Supply interface energy check value iteration history trace: 1252.255038,1252.255038,1252.255037,1252.255037,1252.255037,1252.255037,1252.255037,1252.255037,1252.255037,1252.255037,
   **   ~~~   ** Supply-to-demand interface deck 1 energy check value iteration history trace: 2024.042406,2024.042406,2024.042406,2024.042406,2024.042406,2024.042406,2024.042406,2024.042406,2024.042406,2024.042405,
   ** Warning ** SimHVAC: Maximum iterations (20) exceeded for all HVAC loops, at ANNUAL, 05/06 09:25 - 09:30
   **   ~~~   ** The solution for one or more of the Air Loop HVAC systems did not appear to converge
   **   ~~~   ** Air System Named = CENTRAL SYSTEM did not converge for mass flow rate
   **   ~~~   ** Check values should be zero. Most Recent values listed first.
   **   ~~~   ** Demand-to-Supply interface mass flow rate check value iteration history trace: 7.085847E-002,7.085847E-002,7.085847E-002,7.085847E-002,7.085847E-002,7.085847E-002,7.085847E-002,7.085847E-002,7.085847E-002,7.085847E-002,
   **   ~~~   ** Supply-to-demand interface deck 1 mass flow rate check value iteration history trace: 7.085847E-002,7.085847E-002,7.085847E-002,7.085847E-002,7.085847E-002,7.085847E-002,7.085847E-002,7.085847E-002,7.085847E-002,7.085847E-002,
   **   ~~~   ** Air System Named = CENTRAL SYSTEM did not converge for energy
   **   ~~~   ** Check values should be zero. Most Recent values listed first.
   **   ~~~   ** Demand-to-Supply interface energy check value iteration history trace: 1399.089664,1399.089664,1399.089664,1399.089664,1399.089664,1399.089664,1399.089664,1399.089664,1399.089664,1399.089664,
   **   ~~~   ** Supply-to-demand interface deck 1 energy check value iteration history trace: 2456.422823,2456.422823,2456.422823,2456.422823,2456.422823,2456.422823,2456.422823,2456.422823,2456.422823,2456.422822,
   ** Warning ** SimHVAC: Maximum iterations (20) exceeded for all HVAC loops, at ANNUAL, 09/14 17:06 - 17:09
   **   ~~~   ** The solution for one or more of the Air Loop HVAC systems did not appear to converge
   **   ~~~   ** Air System Named = CENTRAL SYSTEM did not converge for mass flow rate
   **   ~~~   ** Check values should be zero. Most Recent values listed first.
   **   ~~~   ** Demand-to-Supply interface mass flow rate check value iteration history trace: 0.359590,0.359590,0.359590,0.359590,0.359590,0.359590,0.359590,0.359590,0.359590,0.359590,
   **   ~~~   ** Supply-to-demand interface deck 1 mass flow rate check value iteration history trace: 0.359590,0.359590,0.359590,0.359590,0.359590,0.359590,0.359590,0.359590,0.359590,0.359590,
   **   ~~~   ** Air System Named = CENTRAL SYSTEM did not converge for energy
   **   ~~~   ** Check values should be zero. Most Recent values listed first.
   **   ~~~   ** Demand-to-Supply interface energy check value iteration history trace: 8610.812393,8610.812393,8610.812394,8610.812394,8610.812395,8610.812396,8610.812396,8610.812397,8610.812397,8610.812398,
   **   ~~~   ** Supply-to-demand interface deck 1 energy check value iteration history trace: 3800.726079,3800.726079,3800.726079,3800.726079,3800.726080,3800.726080,3800.726080,3800.726080,3800.726081,3800.726081,
   ** Warning ** SimHVAC: Maximum iterations (20) exceeded for all HVAC loops, at ANNUAL, 09/15 11:30 - 11:45
   **   ~~~   ** The solution for one or more of the Air Loop HVAC systems did not appear to converge
   **   ~~~   ** Air System Named = CENTRAL SYSTEM did not converge for mass flow rate
   **   ~~~   ** Check values should be zero. Most Recent values listed first.
   **   ~~~   ** Demand-to-Supply interface mass flow rate check value iteration history trace: 8.752844E-002,8.752844E-002,8.752844E-002,8.752844E-002,8.752844E-002,8.752844E-002,8.752844E-002,8.752844E-002,8.752844E-002,8.752844E-002,
   **   ~~~   ** Supply-to-demand interface deck 1 mass flow rate check value iteration history trace: 8.752844E-002,8.752844E-002,8.752844E-002,8.752844E-002,8.752844E-002,8.752844E-002,8.752844E-002,8.752844E-002,8.752844E-002,8.752844E-002,
   **   ~~~   ** Air System Named = CENTRAL SYSTEM did not converge for energy
   **   ~~~   ** Check values should be zero. Most Recent values listed first.
   **   ~~~   ** Demand-to-Supply interface energy check value iteration history trace: 2065.197943,2065.197944,2065.197944,2065.197944,2065.197944,2065.197945,2065.197945,2065.197945,2065.197945,2065.197946,
   **   ~~~   ** Supply-to-demand interface deck 1 energy check value iteration history trace: 936.378944,936.378944,936.378944,936.378944,936.378944,936.378944,936.378944,936.378944,936.378944,936.378945,
   ** Warning ** SimHVAC: Maximum iterations (20) exceeded for all HVAC loops, at ANNUAL, 09/17 11:30 - 11:45
   **   ~~~   ** The solution for one or more of the Air Loop HVAC systems did not appear to converge
   **   ~~~   ** Air System Named = CENTRAL SYSTEM did not converge for mass flow rate
   **   ~~~   ** Check values should be zero. Most Recent values listed first.
   **   ~~~   ** Demand-to-Supply interface mass flow rate check value iteration history trace: 7.807727E-002,7.807727E-002,7.807727E-002,7.807727E-002,7.807727E-002,7.807727E-002,7.807727E-002,7.807727E-002,7.807727E-002,7.807727E-002,
   **   ~~~   ** Supply-to-demand interface deck 1 mass flow rate check value iteration history trace: 7.807727E-002,7.807727E-002,7.807727E-002,7.807727E-002,7.807727E-002,7.807727E-002,7.807727E-002,7.807727E-002,7.807727E-002,7.807727E-002,
   **   ~~~   ** Air System Named = CENTRAL SYSTEM did not converge for energy
   **   ~~~   ** Check values should be zero. Most Recent values listed first.
   **   ~~~   ** Demand-to-Supply interface energy check value iteration history trace: 1860.374898,1860.374898,1860.374898,1860.374899,1860.374899,1860.374899,1860.374899,1860.374899,1860.374899,1860.374899,
   **   ~~~   ** Supply-to-demand interface deck 1 energy check value iteration history trace: 887.506711,887.506711,887.506711,887.506711,887.506712,887.506712,887.506712,887.506712,887.506712,887.506712,
   ** Warning ** SimHVAC: Maximum iterations (20) exceeded for all HVAC loops, at ANNUAL, 09/23 20:05 - 20:10
   **   ~~~   ** The solution for one or more of the Air Loop HVAC systems did not appear to converge
   **   ~~~   ** Air System Named = CENTRAL SYSTEM did not converge for mass flow rate
   **   ~~~   ** Check values should be zero. Most Recent values listed first.
   **   ~~~   ** Demand-to-Supply interface mass flow rate check value iteration history trace: 0.164956,0.164956,0.164956,0.164956,0.164956,0.164956,0.164956,0.164956,0.164956,0.164956,
   **   ~~~   ** Supply-to-demand interface deck 1 mass flow rate check value iteration history trace: 0.164956,0.164956,0.164956,0.164956,0.164956,0.164956,0.164956,0.164956,0.164956,0.164956,
   **   ~~~   ** Air System Named = CENTRAL SYSTEM did not converge for energy
   **   ~~~   ** Check values should be zero. Most Recent values listed first.
   **   ~~~   ** Demand-to-Supply interface energy check value iteration history trace: 3898.807232,3898.807232,3898.807233,3898.807233,3898.807234,3898.807234,3898.807235,3898.807235,3898.807236,3898.807236,
   **   ~~~   ** Supply-to-demand interface deck 1 energy check value iteration history trace: 1890.067935,1890.067935,1890.067936,1890.067936,1890.067936,1890.067936,1890.067937,1890.067937,1890.067937,1890.067937,
   ** Warning ** SimHVAC: Maximum iterations (20) exceeded for all HVAC loops, at ANNUAL, 10/04 08:30 - 08:38
   **   ~~~   ** The solution for one or more of the Air Loop HVAC systems did not appear to converge
   **   ~~~   ** Air System Named = CENTRAL SYSTEM did not converge for mass flow rate
   **   ~~~   ** Check values should be zero. Most Recent values listed first.
   **   ~~~   ** Demand-to-Supply interface mass flow rate check value iteration history trace: 2.618807E-002,2.618807E-002,2.618807E-002,2.618807E-002,2.618807E-002,2.618807E-002,2.618807E-002,2.618807E-002,2.618807E-002,2.618807E-002,
   **   ~~~   ** Supply-to-demand interface deck 1 mass flow rate check value iteration history trace: 2.618807E-002,2.618807E-002,2.618807E-002,2.618807E-002,2.618807E-002,2.618807E-002,2.618807E-002,2.618807E-002,2.618807E-002,2.618807E-002,
   **   ~~~   ** Air System Named = CENTRAL SYSTEM did not converge for energy
   **   ~~~   ** Check values should be zero. Most Recent values listed first.
   **   ~~~   ** Demand-to-Supply interface energy check value iteration history trace: 514.041025,514.041025,514.041025,514.041025,514.041025,514.041025,514.041025,514.041025,514.041025,514.041025,
   **   ~~~   ** Supply-to-demand interface deck 1 energy check value iteration history trace: 914.209521,914.209520,914.209520,914.209520,914.209520,914.209520,914.209520,914.209520,914.209520,914.209520,
   ** Warning ** SimHVAC: Maximum iterations (20) exceeded for all HVAC loops, at ANNUAL, 10/16 11:30 - 11:45
   **   ~~~   ** The solution for one or more of the Air Loop HVAC systems did not appear to converge
   **   ~~~   ** Air System Named = CENTRAL SYSTEM did not converge for mass flow rate
   **   ~~~   ** Check values should be zero. Most Recent values listed first.
   **   ~~~   ** Demand-to-Supply interface mass flow rate check value iteration history trace: 5.628893E-002,5.628893E-002,5.628893E-002,5.628893E-002,5.628893E-002,5.628893E-002,5.628893E-002,5.628893E-002,5.628893E-002,5.628893E-002,
   **   ~~~   ** Supply-to-demand interface deck 1 mass flow rate check value iteration history trace: 5.628893E-002,5.628893E-002,5.628893E-002,5.628893E-002,5.628893E-002,5.628893E-002,5.628893E-002,5.628893E-002,5.628893E-002,5.628893E-002,
   **   ~~~   ** Air System Named = CENTRAL SYSTEM did not converge for energy
   **   ~~~   ** Check values should be zero. Most Recent values listed first.
   **   ~~~   ** Demand-to-Supply interface energy check value iteration history trace: 1100.213575,1100.213575,1100.213575,1100.213575,1100.213575,1100.213575,1100.213575,1100.213575,1100.213574,1100.213574,
   **   ~~~   ** Supply-to-demand interface deck 1 energy check value iteration history trace: 1987.503956,1987.503956,1987.503956,1987.503956,1987.503956,1987.503956,1987.503956,1987.503956,1987.503956,1987.503956,
   ************* Simulation Error Summary *************
   ** Warning ** The following Report Variables were requested but not generated -- check.rdd file
   **   ~~~   ** Either the IDF did not contain these elements, the variable name is misspelled,
   **   ~~~   ** or the requested variable is an advanced output which requires Output : Diagnostics, DisplayAdvancedReportVariables;
   ************* Key=*, VarName=BASEBOARD TOTAL HEATING ENERGY, Frequency=
   ************* Key=*, VarName=WATER HEATER NATURALGAS ENERGY, Frequency=
   ************* Key=*, VarName=COOLING COIL TOTAL HEATING ENERGY, Frequency=
   ************* There are 34 unused schedules in input.
   ************* There are 388 unused week schedules in input.
   ************* There are 396 unused day schedules in input.
   ************* Use Output:Diagnostics,DisplayUnusedSchedules; to see them.
   *************
   ************* ===== Recurring Error Summary =====
   ************* The following recurring error messages occurred.
   *************
   *************  ** Warning ** "TOTAL HOT WATER LOAD" - Target water temperature should be less than or equal to the hot water temperature error continues...
   *************  **   ~~~   **   This error occurred 116581 total times;
   *************  **   ~~~   **   during Warmup 0 times;
   *************  **   ~~~   **   during Sizing 0 times.
   *************  **   ~~~   **   Max=10.420646  Min=4.798141E-004
   *************
   *************  ** Warning ** SimHVAC: Exceeding Maximum iterations for all HVAC loops, during ANNUAL continues
   *************  **   ~~~   **   This error occurred 4 total times;
   *************  **   ~~~   **   during Warmup 0 times;
   *************  **   ~~~   **   during Sizing 0 times.
   *************
   *************
   ************* ===== Final Error Summary =====
   ************* The following error categories occurred.  Consider correcting or noting.
   ************* Loads Initialization did not Converge
   ************* ..1) very high thermal mass such as very thick concrete (solution: increase max number of warmup
   ************* ..   days in the BUILDING object);
   ************* ..2) moderate mass and inadequate space conditioning such that the building keeps getting warmer
   ************* ..   and warmer on successive days (solution: add HVAC, check building thermal properties,
   ************* ..   check if infiltration is included, make sure HVAC properly controlled);
   ************* ..3) a soil layer modeled below the concrete slab - (solution remove this layer and read about
   ************* ..   ground temperatures in the Auxiliary Programs document).
   ************* ..4) unreasonable (too small) limits in the BUILDING object for temperature (.4 default) or
   ************* ..   loads tolerances (.04 default)
   ************* Nominally Unused Constructions
   ************* ..The nominally unused constructions warning is provided to alert you to potential conditions that can cause
   ************* ..extra time during simulation. Each construction is calculated by the algorithm indicated in the HeatBalanceAlgorithm
   ************* ..object. You may remove the constructions indicated (when you use the DisplayExtraWarnings option).
   *************
   ************* EnergyPlus Warmup Error Summary. During Warmup: 1 Warning; 1 Severe Errors.
   ************* EnergyPlus Sizing Error Summary. During Sizing: 4 Warning; 0 Severe Errors.
   ************* EnergyPlus Completed Successfully-- 116617 Warning; 1 Severe Errors; Elapsed Time=00hr 01min 33.33sec
