Program Version,EnergyPlus, Version 22.2.0-c249759bad, YMD=2023.08.02 11:32,
   ************* Beginning Zone Sizing Calculations
   ** Warning ** ProcessScheduleInput: Schedule:Constant="ALWAYS ON DISCRETE", Schedule Type Limits Name="ONOFF" not found -- will not be validated
   ** Warning ** Foundation:Kiva="KIVA FOUNDATION", no Interior Horizontal Insulation Material Name defined
   **   ~~~   ** Interior Horizontal Insulation Depth will not be used.
   ** Warning ** CheckUsedConstructions: There are 15 nominally unused constructions in input.
   **   ~~~   ** Each Unused construction is shown.
   ************* Construction=INTERIOR FLOOR
   ************* Construction=INTERIOR WINDOW
   ************* Construction=EXTERIOR DOOR
   ************* Construction=INTERIOR DOOR
   ************* Construction=GABLE CONSTRUCTION
   ************* Construction=CRAWL_FLOOR
   ************* Construction=INSULATED PIPE
   ************* Construction=PLAIN PIPE
   ************* Construction=TDD PIPE
   ************* Construction=TDD DOME
   ************* Construction=TDD DIFFUSER
   ************* Construction=CRAWL WALL
   ************* Construction=CEILING-FLOOR-LAYER
   ************* Construction=SLAB CONSTRUCTION W FULL R10 INSULATION
   ************* Construction=SLAB CONSTRUCTION W FULL R5 INSULATION
   ** Warning ** GetDXCoils: Coil:Heating:DX:SingleSpeed="DX_HEATING_COIL" curve values
   **   ~~~   ** ... Defrost Energy Input Ratio Function of Temperature Curve Name = DEFROSTEIR output is not equal to 1.0 (+ or - 10%) at rated conditions.
   **   ~~~   ** ... Curve output at rated conditions = 0.152
   ************* Beginning System Sizing Calculations
   ************* Beginning Plant Sizing Calculations
   ** Warning ** SizeDXCoil Coil:Cooling:DX:SingleSpeed DX_COOLING_COIL
   **   ~~~   ** ...Gross Rated Total Cooling Capacity [W] will be limited by the maximum rated volume flow per rated total capacity ratio.
   **   ~~~   ** ...DX coil volume flow rate ( m3/s ) = 0.406727
   **   ~~~   ** ...Requested capacity ( W ) = 6073.590
   **   ~~~   ** ...Requested flow/capacity ratio ( m3/s/W ) = 6.696E-005
   **   ~~~   ** ...Maximum flow/capacity ratio ( m3/s/W ) = 6.041E-005
   **   ~~~   ** ...Adjusted capacity ( W ) = 6732.779
   ** Warning ** Coil:WaterHeating:AirToWaterHeatPump:Wrapped "HEAT PUMP WATER HEATER EVAPORATOR": Rated air volume flow rate per watt of rated total water heating capacity is out of range
   **   ~~~   ** Min Rated Vol Flow Per Watt=[4.027E-005], Rated Vol Flow Per Watt=[1.386E-004], Max Rated Vol Flow Per Watt=[8.056E-005]. See Input-Output Reference Manual for valid range.
   ** Warning ** Water heater = WATER HEATER TANK:  Recovery Efficiency and Energy Factor could not be calculated during the test for standard ratings
   **   ~~~   ** Setpoint was never recovered and/or heater never turned on
   ** Warning ** Check input. Pump nominal power or motor efficiency is set to 0, for pump=MAINS PRESSURE
   ** Warning ** Output:Meter: invalid Key Name="ELECTRIC_RANGE:INTERIOREQUIPMENT:ELECTRICITY" - not found.
   ** Warning ** Output:Meter: invalid Key Name="ELECTRIC_DRYER:INTERIOREQUIPMENT:ELECTRICITY" - not found.
   ** Warning ** Output:Meter: invalid Key Name="HEATRECOVERY:ELECTRICITY" - not found.
   ** Warning ** Output:Meter: invalid Key Name="HEATING:NATURALGAS" - not found.
   ** Warning ** Output:Meter: invalid Key Name="WATERSYSTEMS:NATURALGAS" - not found.
   ** Warning ** Output:Meter: invalid Key Name="PROPANE:FACILITY" - not found.
   ** Warning ** Output:Meter: invalid Key Name="HEATING:PROPANE" - not found.
   ************* Testing Individual Branch Integrity
   ************* All Branches passed integrity testing
   ************* Testing Individual Supply Air Path Integrity
   ************* All Supply Air Paths passed integrity testing
   ************* Testing Individual Return Air Path Integrity
   ************* All Return Air Paths passed integrity testing
   ************* No node connection errors were found.
   ************* Beginning Simulation
   ** Warning ** AirflowNetwork::Solver::validate_distribution: Heat pump water heater is simulated along with an AirflowNetwork but is not included in the AirflowNetwork.
   ** Warning ** CalcEquipmentFlowRates: "TOTAL HOT WATER LOAD" - Target water temperature is greater than the hot water temperature by (0.27 C)
   **   ~~~   **  Environment=EXTREME_WINTER, at Simulation time=01/15 06:50 - 07:00
   **   ~~~   ** ...target water temperature     = 53.33 C
   **   ~~~   ** ...hot water temperature        = 53.07 C
   **   ~~~   ** ...Target water temperature should be less than or equal to the hot water temperature. Verify temperature setpoints and schedules.
   ** Warning ** SimHVAC: Maximum iterations (20) exceeded for all HVAC loops, at ANNUAL, 01/08 07:20 - 07:30
   **   ~~~   ** The solution for one or more of the Air Loop HVAC systems did not appear to converge
   **   ~~~   ** Air System Named = CENTRAL SYSTEM did not converge for mass flow rate
   **   ~~~   ** Check values should be zero. Most Recent values listed first.
   **   ~~~   ** Demand-to-Supply interface mass flow rate check value iteration history trace: 5.915752E-002,5.915752E-002,5.915752E-002,5.915752E-002,5.915752E-002,5.915752E-002,5.915752E-002,5.915752E-002,5.915752E-002,5.915752E-002,
   **   ~~~   ** Supply-to-demand interface deck 1 mass flow rate check value iteration history trace: 5.915752E-002,5.915752E-002,5.915752E-002,5.915752E-002,5.915752E-002,5.915752E-002,5.915752E-002,5.915752E-002,5.915752E-002,5.915752E-002,
   **   ~~~   ** Air System Named = CENTRAL SYSTEM did not converge for energy
   **   ~~~   ** Check values should be zero. Most Recent values listed first.
   **   ~~~   ** Demand-to-Supply interface energy check value iteration history trace: 1175.176382,1175.176381,1175.176379,1175.176378,1175.176376,1175.176375,1175.176373,1175.176371,1175.176370,1175.176368,
   **   ~~~   ** Supply-to-demand interface deck 1 energy check value iteration history trace: 2146.651635,2146.651632,2146.651629,2146.651626,2146.651623,2146.651620,2146.651618,2146.651615,2146.651612,2146.651609,
   ** Warning ** SimHVAC: Maximum iterations (20) exceeded for all HVAC loops, at ANNUAL, 02/09 11:40 - 11:50
   **   ~~~   ** The solution for one or more of the Air Loop HVAC systems did not appear to converge
   **   ~~~   ** Air System Named = CENTRAL SYSTEM did not converge for mass flow rate
   **   ~~~   ** Check values should be zero. Most Recent values listed first.
   **   ~~~   ** Demand-to-Supply interface mass flow rate check value iteration history trace: 9.764203E-002,9.764203E-002,9.764203E-002,9.764203E-002,9.764203E-002,9.764203E-002,9.764203E-002,9.764203E-002,9.764203E-002,9.764203E-002,
   **   ~~~   ** Supply-to-demand interface deck 1 mass flow rate check value iteration history trace: 9.764203E-002,9.764203E-002,9.764203E-002,9.764203E-002,9.764203E-002,9.764203E-002,9.764203E-002,9.764203E-002,9.764203E-002,9.764203E-002,
   **   ~~~   ** Air System Named = CENTRAL SYSTEM did not converge for energy
   **   ~~~   ** Check values should be zero. Most Recent values listed first.
   **   ~~~   ** Demand-to-Supply interface energy check value iteration history trace: 1934.918221,1934.918219,1934.918217,1934.918215,1934.918213,1934.918211,1934.918208,1934.918206,1934.918204,1934.918202,
   **   ~~~   ** Supply-to-demand interface deck 1 energy check value iteration history trace: 2995.509530,2995.509526,2995.509523,2995.509520,2995.509517,2995.509513,2995.509510,2995.509507,2995.509503,2995.509500,
   ** Warning ** SimHVAC: Maximum iterations (20) exceeded for all HVAC loops, at ANNUAL, 02/09 11:40 - 11:45
   **   ~~~   ** The solution for one or more of the Air Loop HVAC systems did not appear to converge
   **   ~~~   ** Air System Named = CENTRAL SYSTEM did not converge for mass flow rate
   **   ~~~   ** Check values should be zero. Most Recent values listed first.
   **   ~~~   ** Demand-to-Supply interface mass flow rate check value iteration history trace: 9.818792E-002,9.818792E-002,9.818792E-002,9.818792E-002,9.818792E-002,9.818792E-002,9.818792E-002,9.818792E-002,9.818792E-002,9.818792E-002,
   **   ~~~   ** Supply-to-demand interface deck 1 mass flow rate check value iteration history trace: 9.818792E-002,9.818792E-002,9.818792E-002,9.818792E-002,9.818792E-002,9.818792E-002,9.818792E-002,9.818792E-002,9.818792E-002,9.818792E-002,
   **   ~~~   ** Air System Named = CENTRAL SYSTEM did not converge for energy
   **   ~~~   ** Check values should be zero. Most Recent values listed first.
   **   ~~~   ** Demand-to-Supply interface energy check value iteration history trace: 1945.741315,1945.741313,1945.741311,1945.741309,1945.741307,1945.741305,1945.741303,1945.741300,1945.741298,1945.741296,
   **   ~~~   ** Supply-to-demand interface deck 1 energy check value iteration history trace: 3012.261443,3012.261440,3012.261437,3012.261434,3012.261430,3012.261427,3012.261424,3012.261420,3012.261417,3012.261414,
   ** Warning ** SimHVAC: Maximum iterations (20) exceeded for all HVAC loops, at ANNUAL, 02/09 19:40 - 19:43
   **   ~~~   ** The solution for one or more of the Air Loop HVAC systems did not appear to converge
   **   ~~~   ** Air System Named = CENTRAL SYSTEM did not converge for mass flow rate
   **   ~~~   ** Check values should be zero. Most Recent values listed first.
   **   ~~~   ** Demand-to-Supply interface mass flow rate check value iteration history trace: 0.112905,0.112905,0.112905,0.112905,0.112905,0.112905,0.112905,0.112905,0.112905,0.112905,
   **   ~~~   ** Supply-to-demand interface deck 1 mass flow rate check value iteration history trace: 0.112905,0.112905,0.112905,0.112905,0.112905,0.112905,0.112905,0.112905,0.112905,0.112905,
   **   ~~~   ** Air System Named = CENTRAL SYSTEM did not converge for energy
   **   ~~~   ** Check values should be zero. Most Recent values listed first.
   **   ~~~   ** Demand-to-Supply interface energy check value iteration history trace: 2226.147763,2226.147759,2226.147756,2226.147752,2226.147748,2226.147745,2226.147741,2226.147738,2226.147734,2226.147731,
   **   ~~~   ** Supply-to-demand interface deck 1 energy check value iteration history trace: 3240.724208,3240.724203,3240.724198,3240.724193,3240.724188,3240.724183,3240.724177,3240.724172,3240.724167,3240.724162,
   ** Warning ** SimHVAC: Maximum iterations (20) exceeded for all HVAC loops, at ANNUAL, 02/18 12:20 - 12:25
   **   ~~~   ** The solution for one or more of the Air Loop HVAC systems did not appear to converge
   **   ~~~   ** Air System Named = CENTRAL SYSTEM did not converge for mass flow rate
   **   ~~~   ** Check values should be zero. Most Recent values listed first.
   **   ~~~   ** Demand-to-Supply interface mass flow rate check value iteration history trace: 6.176506E-002,6.176506E-002,6.176506E-002,6.176506E-002,6.176506E-002,6.176506E-002,6.176506E-002,6.176506E-002,6.176506E-002,6.176506E-002,
   **   ~~~   ** Supply-to-demand interface deck 1 mass flow rate check value iteration history trace: 6.176506E-002,6.176506E-002,6.176506E-002,6.176506E-002,6.176506E-002,6.176506E-002,6.176506E-002,6.176506E-002,6.176506E-002,6.176506E-002,
   **   ~~~   ** Air System Named = CENTRAL SYSTEM did not converge for energy
   **   ~~~   ** Check values should be zero. Most Recent values listed first.
   **   ~~~   ** Demand-to-Supply interface energy check value iteration history trace: 1223.989180,1223.989178,1223.989177,1223.989175,1223.989174,1223.989172,1223.989171,1223.989169,1223.989168,1223.989166,
   **   ~~~   ** Supply-to-demand interface deck 1 energy check value iteration history trace: 2216.597010,2216.597007,2216.597004,2216.597002,2216.596999,2216.596996,2216.596994,2216.596991,2216.596988,2216.596985,
   ** Warning ** SimHVAC: Maximum iterations (20) exceeded for all HVAC loops, at ANNUAL, 02/25 13:10 - 13:15
   **   ~~~   ** The solution for one or more of the Air Loop HVAC systems did not appear to converge
   **   ~~~   ** Air System Named = CENTRAL SYSTEM did not converge for mass flow rate
   **   ~~~   ** Check values should be zero. Most Recent values listed first.
   **   ~~~   ** Demand-to-Supply interface mass flow rate check value iteration history trace: 6.306666E-002,6.306666E-002,6.306666E-002,6.306666E-002,6.306666E-002,6.306666E-002,6.306666E-002,6.306666E-002,6.306666E-002,6.306666E-002,
   **   ~~~   ** Supply-to-demand interface deck 1 mass flow rate check value iteration history trace: 6.306666E-002,6.306666E-002,6.306666E-002,6.306666E-002,6.306666E-002,6.306666E-002,6.306666E-002,6.306666E-002,6.306666E-002,6.306666E-002,
   **   ~~~   ** Air System Named = CENTRAL SYSTEM did not converge for energy
   **   ~~~   ** Check values should be zero. Most Recent values listed first.
   **   ~~~   ** Demand-to-Supply interface energy check value iteration history trace: 1250.169255,1250.169253,1250.169251,1250.169250,1250.169248,1250.169246,1250.169245,1250.169243,1250.169241,1250.169239,
   **   ~~~   ** Supply-to-demand interface deck 1 energy check value iteration history trace: 2119.574825,2119.574823,2119.574820,2119.574817,2119.574814,2119.574811,2119.574808,2119.574805,2119.574802,2119.574799,
   ** Warning ** SimHVAC: Maximum iterations (20) exceeded for all HVAC loops, at ANNUAL, 03/04 13:40 - 13:45
   **   ~~~   ** The solution for one or more of the Air Loop HVAC systems did not appear to converge
   **   ~~~   ** Air System Named = CENTRAL SYSTEM did not converge for mass flow rate
   **   ~~~   ** Check values should be zero. Most Recent values listed first.
   **   ~~~   ** Demand-to-Supply interface mass flow rate check value iteration history trace: 1.073403E-002,1.073403E-002,1.073403E-002,1.073403E-002,1.073403E-002,1.073403E-002,1.073403E-002,1.073403E-002,1.073403E-002,1.073403E-002,
   **   ~~~   ** Supply-to-demand interface deck 1 mass flow rate check value iteration history trace: 1.073403E-002,1.073403E-002,1.073403E-002,1.073403E-002,1.073403E-002,1.073403E-002,1.073403E-002,1.073403E-002,1.073403E-002,1.073403E-002,
   **   ~~~   ** Air System Named = CENTRAL SYSTEM did not converge for energy
   **   ~~~   ** Check values should be zero. Most Recent values listed first.
   **   ~~~   ** Demand-to-Supply interface energy check value iteration history trace: 212.715763,212.715763,212.715762,212.715762,212.715762,212.715762,212.715762,212.715761,212.715761,212.715761,
   **   ~~~   ** Supply-to-demand interface deck 1 energy check value iteration history trace: 355.075418,355.075417,355.075417,355.075416,355.075416,355.075416,355.075415,355.075415,355.075415,355.075414,
   ** Warning ** SimHVAC: Maximum iterations (20) exceeded for all HVAC loops, at ANNUAL, 03/04 19:55 - 19:60
   **   ~~~   ** The solution for one or more of the Air Loop HVAC systems did not appear to converge
   **   ~~~   ** Air System Named = CENTRAL SYSTEM did not converge for mass flow rate
   **   ~~~   ** Check values should be zero. Most Recent values listed first.
   **   ~~~   ** Demand-to-Supply interface mass flow rate check value iteration history trace: 3.712732E-002,3.712732E-002,3.712732E-002,3.712732E-002,3.712732E-002,3.712732E-002,3.712732E-002,3.712732E-002,3.712732E-002,3.712732E-002,
   **   ~~~   ** Supply-to-demand interface deck 1 mass flow rate check value iteration history trace: 3.712732E-002,3.712732E-002,3.712732E-002,3.712732E-002,3.712732E-002,3.712732E-002,3.712732E-002,3.712732E-002,3.712732E-002,3.712732E-002,
   **   ~~~   ** Air System Named = CENTRAL SYSTEM did not converge for energy
   **   ~~~   ** Check values should be zero. Most Recent values listed first.
   **   ~~~   ** Demand-to-Supply interface energy check value iteration history trace: 732.120145,732.120145,732.120144,732.120143,732.120142,732.120142,732.120141,732.120140,732.120139,732.120139,
   **   ~~~   ** Supply-to-demand interface deck 1 energy check value iteration history trace: 1126.976935,1126.976934,1126.976933,1126.976931,1126.976930,1126.976929,1126.976928,1126.976927,1126.976925,1126.976924,
   ** Warning ** Temperature out of range [-100. to 200.] (PsyPsatFnTemp)
   **   ~~~   **  Routine=PsyTwbFnTdbWPb, Environment=ANNUAL, at Simulation time=03/10 13:50 - 13:55
   **   ~~~   **  Input Temperature=-377.16
   ** Warning ** SimHVAC: Maximum iterations (20) exceeded for all HVAC loops, at ANNUAL, 03/28 11:30 - 11:40
   **   ~~~   ** The solution for one or more of the Air Loop HVAC systems did not appear to converge
   **   ~~~   ** Air System Named = CENTRAL SYSTEM did not converge for mass flow rate
   **   ~~~   ** Check values should be zero. Most Recent values listed first.
   **   ~~~   ** Demand-to-Supply interface mass flow rate check value iteration history trace: 5.281823E-002,5.281823E-002,5.281823E-002,5.281823E-002,5.281823E-002,5.281823E-002,5.281823E-002,5.281823E-002,5.281823E-002,5.281823E-002,
   **   ~~~   ** Supply-to-demand interface deck 1 mass flow rate check value iteration history trace: 5.281823E-002,5.281823E-002,5.281823E-002,5.281823E-002,5.281823E-002,5.281823E-002,5.281823E-002,5.281823E-002,5.281823E-002,5.281823E-002,
   **   ~~~   ** Air System Named = CENTRAL SYSTEM did not converge for energy
   **   ~~~   ** Check values should be zero. Most Recent values listed first.
   **   ~~~   ** Demand-to-Supply interface energy check value iteration history trace: 1037.860903,1037.860902,1037.860901,1037.860900,1037.860899,1037.860898,1037.860897,1037.860896,1037.860895,1037.860894,
   **   ~~~   ** Supply-to-demand interface deck 1 energy check value iteration history trace: 1923.971092,1923.971090,1923.971088,1923.971086,1923.971084,1923.971082,1923.971080,1923.971078,1923.971076,1923.971075,
   ** Warning ** SimHVAC: Maximum iterations (20) exceeded for all HVAC loops, at ANNUAL, 03/30 07:10 - 07:15
   **   ~~~   ** The solution for one or more of the Air Loop HVAC systems did not appear to converge
   **   ~~~   ** Air System Named = CENTRAL SYSTEM did not converge for mass flow rate
   **   ~~~   ** Check values should be zero. Most Recent values listed first.
   **   ~~~   ** Demand-to-Supply interface mass flow rate check value iteration history trace: 5.999928E-002,5.999928E-002,5.999928E-002,5.999928E-002,5.999928E-002,5.999928E-002,5.999928E-002,5.999928E-002,5.999928E-002,5.999928E-002,
   **   ~~~   ** Supply-to-demand interface deck 1 mass flow rate check value iteration history trace: 5.999928E-002,5.999928E-002,5.999928E-002,5.999928E-002,5.999928E-002,5.999928E-002,5.999928E-002,5.999928E-002,5.999928E-002,5.999928E-002,
   **   ~~~   ** Air System Named = CENTRAL SYSTEM did not converge for energy
   **   ~~~   ** Check values should be zero. Most Recent values listed first.
   **   ~~~   ** Demand-to-Supply interface energy check value iteration history trace: 1188.952884,1188.952883,1188.952883,1188.952883,1188.952883,1188.952882,1188.952882,1188.952882,1188.952881,1188.952881,
   **   ~~~   ** Supply-to-demand interface deck 1 energy check value iteration history trace: 2136.060154,2136.060154,2136.060153,2136.060153,2136.060152,2136.060152,2136.060151,2136.060151,2136.060150,2136.060150,
   ** Warning ** SimHVAC: Maximum iterations (20) exceeded for all HVAC loops, at ANNUAL, 04/25 06:10 - 06:20
   **   ~~~   ** The solution for one or more of the Air Loop HVAC systems did not appear to converge
   **   ~~~   ** Air System Named = CENTRAL SYSTEM did not converge for mass flow rate
   **   ~~~   ** Check values should be zero. Most Recent values listed first.
   **   ~~~   ** Demand-to-Supply interface mass flow rate check value iteration history trace: 7.017565E-002,7.017565E-002,7.017565E-002,7.017564E-002,7.017564E-002,7.017564E-002,7.017564E-002,7.017564E-002,7.017564E-002,7.017564E-002,
   **   ~~~   ** Supply-to-demand interface deck 1 mass flow rate check value iteration history trace: 7.017565E-002,7.017565E-002,7.017565E-002,7.017564E-002,7.017564E-002,7.017564E-002,7.017564E-002,7.017564E-002,7.017564E-002,7.017564E-002,
   **   ~~~   ** Air System Named = CENTRAL SYSTEM did not converge for energy
   **   ~~~   ** Check values should be zero. Most Recent values listed first.
   **   ~~~   ** Demand-to-Supply interface energy check value iteration history trace: 1390.719934,1390.719933,1390.719932,1390.719931,1390.719930,1390.719929,1390.719928,1390.719927,1390.719926,1390.719925,
   **   ~~~   ** Supply-to-demand interface deck 1 energy check value iteration history trace: 2468.144596,2468.144594,2468.144592,2468.144591,2468.144589,2468.144587,2468.144586,2468.144584,2468.144582,2468.144581,
   ** Warning ** SimHVAC: Maximum iterations (20) exceeded for all HVAC loops, at ANNUAL, 04/26 07:34 - 07:36
   **   ~~~   ** The solution for one or more of the Air Loop HVAC systems did not appear to converge
   **   ~~~   ** Air System Named = CENTRAL SYSTEM did not converge for mass flow rate
   **   ~~~   ** Check values should be zero. Most Recent values listed first.
   **   ~~~   ** Demand-to-Supply interface mass flow rate check value iteration history trace: 6.087113E-002,6.087113E-002,6.087113E-002,6.087113E-002,6.087113E-002,6.087113E-002,6.087113E-002,6.087113E-002,6.087113E-002,6.087113E-002,
   **   ~~~   ** Supply-to-demand interface deck 1 mass flow rate check value iteration history trace: 6.087113E-002,6.087113E-002,6.087113E-002,6.087113E-002,6.087113E-002,6.087113E-002,6.087113E-002,6.087113E-002,6.087113E-002,6.087113E-002,
   **   ~~~   ** Air System Named = CENTRAL SYSTEM did not converge for energy
   **   ~~~   ** Check values should be zero. Most Recent values listed first.
   **   ~~~   ** Demand-to-Supply interface energy check value iteration history trace: 1204.797060,1204.797060,1204.797059,1204.797059,1204.797058,1204.797058,1204.797057,1204.797057,1204.797056,1204.797056,
   **   ~~~   ** Supply-to-demand interface deck 1 energy check value iteration history trace: 2255.670110,2255.670109,2255.670108,2255.670107,2255.670106,2255.670105,2255.670104,2255.670103,2255.670102,2255.670101,
   ** Warning ** SimHVAC: Maximum iterations (20) exceeded for all HVAC loops, at ANNUAL, 05/05 09:13 - 09:17
   **   ~~~   ** The solution for one or more of the Air Loop HVAC systems did not appear to converge
   **   ~~~   ** Air System Named = CENTRAL SYSTEM did not converge for mass flow rate
   **   ~~~   ** Check values should be zero. Most Recent values listed first.
   **   ~~~   ** Demand-to-Supply interface mass flow rate check value iteration history trace: 6.442677E-002,6.442677E-002,6.442677E-002,6.442677E-002,6.442677E-002,6.442677E-002,6.442677E-002,6.442677E-002,6.442677E-002,6.442677E-002,
   **   ~~~   ** Supply-to-demand interface deck 1 mass flow rate check value iteration history trace: 6.442677E-002,6.442677E-002,6.442677E-002,6.442677E-002,6.442677E-002,6.442677E-002,6.442677E-002,6.442677E-002,6.442677E-002,6.442677E-002,
   **   ~~~   ** Air System Named = CENTRAL SYSTEM did not converge for energy
   **   ~~~   ** Check values should be zero. Most Recent values listed first.
   **   ~~~   ** Demand-to-Supply interface energy check value iteration history trace: 1271.996548,1271.996548,1271.996547,1271.996546,1271.996545,1271.996544,1271.996543,1271.996542,1271.996542,1271.996541,
   **   ~~~   ** Supply-to-demand interface deck 1 energy check value iteration history trace: 2331.983087,2331.983085,2331.983083,2331.983082,2331.983080,2331.983079,2331.983077,2331.983076,2331.983074,2331.983073,
   ** Warning ** SimHVAC: Maximum iterations (20) exceeded for all HVAC loops, at ANNUAL, 05/16 11:10 - 11:20
   **   ~~~   ** The solution for one or more of the Air Loop HVAC systems did not appear to converge
   **   ~~~   ** Air System Named = CENTRAL SYSTEM did not converge for mass flow rate
   **   ~~~   ** Check values should be zero. Most Recent values listed first.
   **   ~~~   ** Demand-to-Supply interface mass flow rate check value iteration history trace: 7.654751E-002,7.654751E-002,7.654751E-002,7.654751E-002,7.654751E-002,7.654750E-002,7.654750E-002,7.654750E-002,7.654750E-002,7.654750E-002,
   **   ~~~   ** Supply-to-demand interface deck 1 mass flow rate check value iteration history trace: 7.654751E-002,7.654751E-002,7.654751E-002,7.654751E-002,7.654751E-002,7.654750E-002,7.654750E-002,7.654750E-002,7.654750E-002,7.654750E-002,
   **   ~~~   ** Air System Named = CENTRAL SYSTEM did not converge for energy
   **   ~~~   ** Check values should be zero. Most Recent values listed first.
   **   ~~~   ** Demand-to-Supply interface energy check value iteration history trace: 1519.913918,1519.913916,1519.913914,1519.913912,1519.913910,1519.913908,1519.913906,1519.913904,1519.913902,1519.913900,
   **   ~~~   ** Supply-to-demand interface deck 1 energy check value iteration history trace: 2652.259381,2652.259377,2652.259373,2652.259370,2652.259366,2652.259363,2652.259359,2652.259356,2652.259352,2652.259349,
   ************* Simulation Error Summary *************
   ** Warning ** The following Report Variables were requested but not generated -- check.rdd file
   **   ~~~   ** Either the IDF did not contain these elements, the variable name is misspelled,
   **   ~~~   ** or the requested variable is an advanced output which requires Output : Diagnostics, DisplayAdvancedReportVariables;
   ************* Key=*, VarName=BASEBOARD TOTAL HEATING ENERGY, Frequency=
   ************* There are 34 unused schedules in input.
   ************* There are 388 unused week schedules in input.
   ************* There are 397 unused day schedules in input.
   ************* Use Output:Diagnostics,DisplayUnusedSchedules; to see them.
   *************
   ************* ===== Recurring Error Summary =====
   ************* The following recurring error messages occurred.
   *************
   *************  ** Warning ** "TOTAL HOT WATER LOAD" - Target water temperature should be less than or equal to the hot water temperature error continues...
   *************  **   ~~~   **   This error occurred 99901 total times;
   *************  **   ~~~   **   during Warmup 0 times;
   *************  **   ~~~   **   during Sizing 0 times.
   *************  **   ~~~   **   Max=11.229353  Min=8.434142E-004
   *************
   *************  ** Warning ** Temperature out of range [-100. to 200.] (PsyPsatFnTemp)
   *************  **   ~~~   **   This error occurred 1 total times;
   *************  **   ~~~   **   during Warmup 0 times;
   *************  **   ~~~   **   during Sizing 0 times.
   *************  **   ~~~   **   Max=-377.168625 C  Min=-377.168625 C
   *************
   *************  ** Warning ** SimHVAC: Exceeding Maximum iterations for all HVAC loops, during ANNUAL continues
   *************  **   ~~~   **   This error occurred 8 total times;
   *************  **   ~~~   **   during Warmup 0 times;
   *************  **   ~~~   **   during Sizing 0 times.
   *************
   *************
   ************* ===== Final Error Summary =====
   ************* The following error categories occurred.  Consider correcting or noting.
   ************* Nominally Unused Constructions
   ************* ..The nominally unused constructions warning is provided to alert you to potential conditions that can cause
   ************* ..extra time during simulation. Each construction is calculated by the algorithm indicated in the HeatBalanceAlgorithm
   ************* ..object. You may remove the constructions indicated (when you use the DisplayExtraWarnings option).
   *************
   ************* EnergyPlus Warmup Error Summary. During Warmup: 1 Warning; 0 Severe Errors.
   ************* EnergyPlus Sizing Error Summary. During Sizing: 4 Warning; 0 Severe Errors.
   ************* EnergyPlus Completed Successfully-- 99942 Warning; 0 Severe Errors; Elapsed Time=00hr 01min 37.17sec
