Program Version,EnergyPlus, Version 22.2.0-c249759bad, YMD=2023.09.01 19:31,
   ************* Beginning Zone Sizing Calculations
   ** Warning ** ProcessScheduleInput: Schedule:Constant="ALWAYS ON DISCRETE", Schedule Type Limits Name="ONOFF" not found -- will not be validated
   ** Warning ** Foundation:Kiva="KIVA FOUNDATION", no Interior Horizontal Insulation Material Name defined
   **   ~~~   ** Interior Horizontal Insulation Depth will not be used.
   ** Warning ** CheckUsedConstructions: There are 15 nominally unused constructions in input.
   **   ~~~   ** Each Unused construction is shown.
   ************* Construction=INTERIOR FLOOR
   ************* Construction=INTERIOR WINDOW
   ************* Construction=EXTERIOR DOOR
   ************* Construction=INTERIOR DOOR
   ************* Construction=GABLE CONSTRUCTION
   ************* Construction=CRAWL_FLOOR
   ************* Construction=INSULATED PIPE
   ************* Construction=PLAIN PIPE
   ************* Construction=TDD PIPE
   ************* Construction=TDD DOME
   ************* Construction=TDD DIFFUSER
   ************* Construction=CRAWL WALL
   ************* Construction=CEILING-FLOOR-LAYER
   ************* Construction=SLAB CONSTRUCTION W FULL R10 INSULATION
   ************* Construction=SLAB CONSTRUCTION W FULL R5 INSULATION
   ** Warning ** GetDXCoils: Coil:Heating:DX:SingleSpeed="DX_HEATING_COIL" curve values
   **   ~~~   ** ... Defrost Energy Input Ratio Function of Temperature Curve Name = DEFROSTEIR output is not equal to 1.0 (+ or - 10%) at rated conditions.
   **   ~~~   ** ... Curve output at rated conditions = 0.152
   ************* Beginning System Sizing Calculations
   ************* Beginning Plant Sizing Calculations
   ** Warning ** SizeDXCoil Coil:Cooling:DX:SingleSpeed DX_COOLING_COIL
   **   ~~~   ** ...Gross Rated Total Cooling Capacity [W] will be limited by the maximum rated volume flow per rated total capacity ratio.
   **   ~~~   ** ...DX coil volume flow rate ( m3/s ) = 0.394466
   **   ~~~   ** ...Requested capacity ( W ) = 6368.625
   **   ~~~   ** ...Requested flow/capacity ratio ( m3/s/W ) = 6.193E-005
   **   ~~~   ** ...Maximum flow/capacity ratio ( m3/s/W ) = 6.041E-005
   **   ~~~   ** ...Adjusted capacity ( W ) = 6529.822
   ** Warning ** SizeDXCoil Coil:Heating:DX:SingleSpeed DX_HEATING_COIL
   **   ~~~   ** ...Gross Rated Heating Capacity [W] will be limited by the maximum rated volume flow per rated total capacity ratio.
   **   ~~~   ** ...DX coil volume flow rate ( m3/s ) = 0.394466
   **   ~~~   ** ...Requested capacity ( W ) = 6529.822
   **   ~~~   ** ...Requested flow/capacity ratio ( m3/s/W ) = 6.041E-005
   **   ~~~   ** ...Maximum flow/capacity ratio ( m3/s/W ) = 6.041E-005
   **   ~~~   ** ...Adjusted capacity ( W ) = 6529.822
   ** Warning ** Coil:WaterHeating:AirToWaterHeatPump:Wrapped "HEAT PUMP WATER HEATER EVAPORATOR": Rated air volume flow rate per watt of rated total water heating capacity is out of range
   **   ~~~   ** Min Rated Vol Flow Per Watt=[4.027E-005], Rated Vol Flow Per Watt=[1.510E-004], Max Rated Vol Flow Per Watt=[8.056E-005]. See Input-Output Reference Manual for valid range.
   ************* SizeFan: : Potential issue with equipment sizing for Fan:OnOff HEAT PUMP WATER HEATER FAN
   **   ~~~   ** User-Specified Maximum Flow Rate [m3/s] = 0.22653
   **   ~~~   ** differs from Design Size Maximum Flow Rate [m3/s] = 7.55250E-002
   **   ~~~   ** This may, or may not, indicate mismatched component sizes.
   **   ~~~   ** Verify that the value entered is intended and is consistent with other components.
   ** Warning ** Water heater = WATER HEATER TANK:  Recovery Efficiency and Energy Factor could not be calculated during the test for standard ratings
   **   ~~~   ** Setpoint was never recovered and/or heater never turned on
   ** Warning ** Check input. Pump nominal power or motor efficiency is set to 0, for pump=MAINS PRESSURE
   ** Warning ** Output:Meter: invalid Key Name="ELECTRIC_RANGE:INTERIOREQUIPMENT:ELECTRICITY" - not found.
   ** Warning ** Output:Meter: invalid Key Name="ELECTRIC_DRYER:INTERIOREQUIPMENT:ELECTRICITY" - not found.
   ** Warning ** Output:Meter: invalid Key Name="HEATRECOVERY:ELECTRICITY" - not found.
   ** Warning ** Output:Meter: invalid Key Name="HEATING:NATURALGAS" - not found.
   ** Warning ** Output:Meter: invalid Key Name="WATERSYSTEMS:NATURALGAS" - not found.
   ** Warning ** Output:Meter: invalid Key Name="PROPANE:FACILITY" - not found.
   ** Warning ** Output:Meter: invalid Key Name="HEATING:PROPANE" - not found.
   ************* Testing Individual Branch Integrity
   ************* All Branches passed integrity testing
   ************* Testing Individual Supply Air Path Integrity
   ************* All Supply Air Paths passed integrity testing
   ************* Testing Individual Return Air Path Integrity
   ************* All Return Air Paths passed integrity testing
   ************* No node connection errors were found.
   ************* Beginning Simulation
   ** Warning ** AirflowNetwork::Solver::validate_distribution: Heat pump water heater is simulated along with an AirflowNetwork but is not included in the AirflowNetwork.
   ** Warning ** CalcEquipmentFlowRates: "TOTAL HOT WATER LOAD" - Target water temperature is greater than the hot water temperature by (1.80E-002 C)
   **   ~~~   **  Environment=EXTREME_WINTER, at Simulation time=01/20 06:00 - 06:15
   **   ~~~   ** ...target water temperature     = 53.33 C
   **   ~~~   ** ...hot water temperature        = 53.32 C
   **   ~~~   ** ...Target water temperature should be less than or equal to the hot water temperature. Verify temperature setpoints and schedules.
   ** Warning ** SimHVAC: Maximum iterations (20) exceeded for all HVAC loops, at EXTREME_WINTER, 01/25 13:15 - 13:30
   **   ~~~   ** The solution for one or more of the Air Loop HVAC systems did not appear to converge
   **   ~~~   ** Air System Named = CENTRAL SYSTEM did not converge for mass flow rate
   **   ~~~   ** Check values should be zero. Most Recent values listed first.
   **   ~~~   ** Demand-to-Supply interface mass flow rate check value iteration history trace: 5.537998E-002,5.537998E-002,5.537998E-002,5.537998E-002,5.537998E-002,5.537998E-002,5.537998E-002,5.537998E-002,5.537998E-002,5.537998E-002,
   **   ~~~   ** Supply-to-demand interface deck 1 mass flow rate check value iteration history trace: 5.537998E-002,5.537998E-002,5.537998E-002,5.537998E-002,5.537998E-002,5.537998E-002,5.537998E-002,5.537998E-002,5.537998E-002,5.537998E-002,
   **   ~~~   ** Air System Named = CENTRAL SYSTEM did not converge for energy
   **   ~~~   ** Check values should be zero. Most Recent values listed first.
   **   ~~~   ** Demand-to-Supply interface energy check value iteration history trace: 1097.937416,1097.937416,1097.937416,1097.937416,1097.937416,1097.937416,1097.937416,1097.937416,1097.937416,1097.937416,
   **   ~~~   ** Supply-to-demand interface deck 1 energy check value iteration history trace: 1614.054931,1614.054931,1614.054931,1614.054931,1614.054931,1614.054931,1614.054931,1614.054930,1614.054930,1614.054930,
   ** Warning ** SimHVAC: Maximum iterations (20) exceeded for all HVAC loops, at ANNUAL, 01/08 22:45 - 23:00
   **   ~~~   ** The solution for one or more of the Air Loop HVAC systems did not appear to converge
   **   ~~~   ** Air System Named = CENTRAL SYSTEM did not converge for mass flow rate
   **   ~~~   ** Check values should be zero. Most Recent values listed first.
   **   ~~~   ** Demand-to-Supply interface mass flow rate check value iteration history trace: 5.520454E-002,5.520454E-002,5.520454E-002,5.520454E-002,5.520454E-002,5.520454E-002,5.520454E-002,5.520454E-002,5.520454E-002,5.520454E-002,
   **   ~~~   ** Supply-to-demand interface deck 1 mass flow rate check value iteration history trace: 5.520454E-002,5.520454E-002,5.520454E-002,5.520454E-002,5.520454E-002,5.520454E-002,5.520454E-002,5.520454E-002,5.520454E-002,5.520454E-002,
   **   ~~~   ** Air System Named = CENTRAL SYSTEM did not converge for energy
   **   ~~~   ** Check values should be zero. Most Recent values listed first.
   **   ~~~   ** Demand-to-Supply interface energy check value iteration history trace: 1021.257153,1021.257153,1021.257153,1021.257152,1021.257152,1021.257152,1021.257152,1021.257152,1021.257152,1021.257152,
   **   ~~~   ** Supply-to-demand interface deck 1 energy check value iteration history trace: 1803.342647,1803.342647,1803.342647,1803.342647,1803.342647,1803.342647,1803.342647,1803.342647,1803.342647,1803.342647,
   ** Warning ** SimHVAC: Maximum iterations (20) exceeded for all HVAC loops, at ANNUAL, 01/10 10:00 - 10:15
   **   ~~~   ** The solution for one or more of the Air Loop HVAC systems did not appear to converge
   **   ~~~   ** Air System Named = CENTRAL SYSTEM did not converge for mass flow rate
   **   ~~~   ** Check values should be zero. Most Recent values listed first.
   **   ~~~   ** Demand-to-Supply interface mass flow rate check value iteration history trace: 3.237783E-002,3.237783E-002,3.237783E-002,3.237783E-002,3.237783E-002,3.237783E-002,3.237783E-002,3.237783E-002,3.237783E-002,3.237783E-002,
   **   ~~~   ** Supply-to-demand interface deck 1 mass flow rate check value iteration history trace: 3.237783E-002,3.237783E-002,3.237783E-002,3.237783E-002,3.237783E-002,3.237783E-002,3.237783E-002,3.237783E-002,3.237783E-002,3.237783E-002,
   **   ~~~   ** Air System Named = CENTRAL SYSTEM did not converge for energy
   **   ~~~   ** Check values should be zero. Most Recent values listed first.
   **   ~~~   ** Demand-to-Supply interface energy check value iteration history trace: 641.541743,641.541743,641.541743,641.541743,641.541743,641.541743,641.541743,641.541743,641.541743,641.541742,
   **   ~~~   ** Supply-to-demand interface deck 1 energy check value iteration history trace: 1066.786604,1066.786604,1066.786604,1066.786604,1066.786604,1066.786604,1066.786603,1066.786603,1066.786603,1066.786603,
   ** Warning ** SimHVAC: Maximum iterations (20) exceeded for all HVAC loops, at ANNUAL, 01/16 13:45 - 14:00
   **   ~~~   ** The solution for one or more of the Air Loop HVAC systems did not appear to converge
   **   ~~~   ** Air System Named = CENTRAL SYSTEM did not converge for mass flow rate
   **   ~~~   ** Check values should be zero. Most Recent values listed first.
   **   ~~~   ** Demand-to-Supply interface mass flow rate check value iteration history trace: 7.974817E-002,7.974817E-002,7.974817E-002,7.974817E-002,7.974817E-002,7.974817E-002,7.974817E-002,7.974817E-002,7.974817E-002,7.974817E-002,
   **   ~~~   ** Supply-to-demand interface deck 1 mass flow rate check value iteration history trace: 7.974817E-002,7.974817E-002,7.974817E-002,7.974817E-002,7.974817E-002,7.974817E-002,7.974817E-002,7.974817E-002,7.974817E-002,7.974817E-002,
   **   ~~~   ** Air System Named = CENTRAL SYSTEM did not converge for energy
   **   ~~~   ** Check values should be zero. Most Recent values listed first.
   **   ~~~   ** Demand-to-Supply interface energy check value iteration history trace: 1582.146232,1582.146232,1582.146232,1582.146232,1582.146231,1582.146231,1582.146231,1582.146231,1582.146231,1582.146231,
   **   ~~~   ** Supply-to-demand interface deck 1 energy check value iteration history trace: 2388.203773,2388.203773,2388.203773,2388.203773,2388.203773,2388.203773,2388.203772,2388.203772,2388.203772,2388.203772,
   ** Warning ** SimHVAC: Maximum iterations (20) exceeded for all HVAC loops, at ANNUAL, 03/06 17:23 - 17:26
   **   ~~~   ** The solution for one or more of the Air Loop HVAC systems did not appear to converge
   **   ~~~   ** Air System Named = CENTRAL SYSTEM did not converge for mass flow rate
   **   ~~~   ** Check values should be zero. Most Recent values listed first.
   **   ~~~   ** Demand-to-Supply interface mass flow rate check value iteration history trace: 6.141860E-002,6.141860E-002,6.141860E-002,6.141860E-002,6.141860E-002,6.141860E-002,6.141860E-002,6.141860E-002,6.141860E-002,6.141860E-002,
   **   ~~~   ** Supply-to-demand interface deck 1 mass flow rate check value iteration history trace: 6.141860E-002,6.141860E-002,6.141860E-002,6.141860E-002,6.141860E-002,6.141860E-002,6.141860E-002,6.141860E-002,6.141860E-002,6.141860E-002,
   **   ~~~   ** Air System Named = CENTRAL SYSTEM did not converge for energy
   **   ~~~   ** Check values should be zero. Most Recent values listed first.
   **   ~~~   ** Demand-to-Supply interface energy check value iteration history trace: 1212.563938,1212.563938,1212.563938,1212.563938,1212.563938,1212.563938,1212.563938,1212.563938,1212.563938,1212.563938,
   **   ~~~   ** Supply-to-demand interface deck 1 energy check value iteration history trace: 2111.178240,2111.178240,2111.178240,2111.178240,2111.178240,2111.178240,2111.178240,2111.178240,2111.178240,2111.178240,
   ** Warning ** SimHVAC: Maximum iterations (20) exceeded for all HVAC loops, at ANNUAL, 03/06 19:15 - 19:22
   **   ~~~   ** The solution for one or more of the Air Loop HVAC systems did not appear to converge
   **   ~~~   ** Air System Named = CENTRAL SYSTEM did not converge for mass flow rate
   **   ~~~   ** Check values should be zero. Most Recent values listed first.
   **   ~~~   ** Demand-to-Supply interface mass flow rate check value iteration history trace: 7.314722E-002,7.314722E-002,7.314722E-002,7.314722E-002,7.314722E-002,7.314722E-002,7.314722E-002,7.314722E-002,7.314722E-002,7.314722E-002,
   **   ~~~   ** Supply-to-demand interface deck 1 mass flow rate check value iteration history trace: 7.314722E-002,7.314722E-002,7.314722E-002,7.314722E-002,7.314722E-002,7.314722E-002,7.314722E-002,7.314722E-002,7.314722E-002,7.314722E-002,
   **   ~~~   ** Air System Named = CENTRAL SYSTEM did not converge for energy
   **   ~~~   ** Check values should be zero. Most Recent values listed first.
   **   ~~~   ** Demand-to-Supply interface energy check value iteration history trace: 1441.566381,1441.566380,1441.566380,1441.566380,1441.566380,1441.566380,1441.566380,1441.566380,1441.566380,1441.566380,
   **   ~~~   ** Supply-to-demand interface deck 1 energy check value iteration history trace: 2468.946630,2468.946630,2468.946630,2468.946630,2468.946630,2468.946630,2468.946630,2468.946630,2468.946630,2468.946630,
   ** Warning ** SimHVAC: Maximum iterations (20) exceeded for all HVAC loops, at ANNUAL, 03/11 19:00 - 19:08
   **   ~~~   ** The solution for one or more of the Air Loop HVAC systems did not appear to converge
   **   ~~~   ** Air System Named = CENTRAL SYSTEM did not converge for mass flow rate
   **   ~~~   ** Check values should be zero. Most Recent values listed first.
   **   ~~~   ** Demand-to-Supply interface mass flow rate check value iteration history trace: 6.558650E-002,6.558650E-002,6.558650E-002,6.558650E-002,6.558650E-002,6.558650E-002,6.558650E-002,6.558650E-002,6.558650E-002,6.558650E-002,
   **   ~~~   ** Supply-to-demand interface deck 1 mass flow rate check value iteration history trace: 6.558650E-002,6.558650E-002,6.558650E-002,6.558650E-002,6.558650E-002,6.558650E-002,6.558650E-002,6.558650E-002,6.558650E-002,6.558650E-002,
   **   ~~~   ** Air System Named = CENTRAL SYSTEM did not converge for energy
   **   ~~~   ** Check values should be zero. Most Recent values listed first.
   **   ~~~   ** Demand-to-Supply interface energy check value iteration history trace: 1299.751037,1299.751037,1299.751037,1299.751037,1299.751037,1299.751037,1299.751037,1299.751037,1299.751037,1299.751037,
   **   ~~~   ** Supply-to-demand interface deck 1 energy check value iteration history trace: 2253.614334,2253.614334,2253.614334,2253.614334,2253.614334,2253.614334,2253.614334,2253.614334,2253.614334,2253.614333,
   ** Warning ** SimHVAC: Maximum iterations (20) exceeded for all HVAC loops, at ANNUAL, 04/16 08:12 - 08:15
   **   ~~~   ** The solution for one or more of the Air Loop HVAC systems did not appear to converge
   **   ~~~   ** Air System Named = CENTRAL SYSTEM did not converge for mass flow rate
   **   ~~~   ** Check values should be zero. Most Recent values listed first.
   **   ~~~   ** Demand-to-Supply interface mass flow rate check value iteration history trace: 5.937772E-002,5.937772E-002,5.937772E-002,5.937772E-002,5.937772E-002,5.937772E-002,5.937772E-002,5.937772E-002,5.937772E-002,5.937772E-002,
   **   ~~~   ** Supply-to-demand interface deck 1 mass flow rate check value iteration history trace: 5.937772E-002,5.937772E-002,5.937772E-002,5.937772E-002,5.937772E-002,5.937772E-002,5.937772E-002,5.937772E-002,5.937772E-002,5.937772E-002,
   **   ~~~   ** Air System Named = CENTRAL SYSTEM did not converge for energy
   **   ~~~   ** Check values should be zero. Most Recent values listed first.
   **   ~~~   ** Demand-to-Supply interface energy check value iteration history trace: 1179.755818,1179.755818,1179.755818,1179.755818,1179.755818,1179.755818,1179.755818,1179.755818,1179.755818,1179.755818,
   **   ~~~   ** Supply-to-demand interface deck 1 energy check value iteration history trace: 2025.552837,2025.552837,2025.552836,2025.552836,2025.552836,2025.552836,2025.552836,2025.552836,2025.552836,2025.552836,
   ** Warning ** SimHVAC: Maximum iterations (20) exceeded for all HVAC loops, at ANNUAL, 04/24 08:23 - 08:26
   **   ~~~   ** The solution for one or more of the Air Loop HVAC systems did not appear to converge
   **   ~~~   ** Air System Named = CENTRAL SYSTEM did not converge for mass flow rate
   **   ~~~   ** Check values should be zero. Most Recent values listed first.
   **   ~~~   ** Demand-to-Supply interface mass flow rate check value iteration history trace: 6.162600E-002,6.162600E-002,6.162600E-002,6.162600E-002,6.162600E-002,6.162600E-002,6.162600E-002,6.162600E-002,6.162600E-002,6.162600E-002,
   **   ~~~   ** Supply-to-demand interface deck 1 mass flow rate check value iteration history trace: 6.162600E-002,6.162600E-002,6.162600E-002,6.162600E-002,6.162600E-002,6.162600E-002,6.162600E-002,6.162600E-002,6.162600E-002,6.162600E-002,
   **   ~~~   ** Air System Named = CENTRAL SYSTEM did not converge for energy
   **   ~~~   ** Check values should be zero. Most Recent values listed first.
   **   ~~~   ** Demand-to-Supply interface energy check value iteration history trace: 1213.825451,1213.825451,1213.825451,1213.825451,1213.825451,1213.825451,1213.825451,1213.825451,1213.825451,1213.825451,
   **   ~~~   ** Supply-to-demand interface deck 1 energy check value iteration history trace: 2144.870592,2144.870592,2144.870592,2144.870592,2144.870591,2144.870591,2144.870591,2144.870591,2144.870591,2144.870591,
   ** Warning ** SimHVAC: Maximum iterations (20) exceeded for all HVAC loops, at ANNUAL, 05/05 14:23 - 14:30
   **   ~~~   ** The solution for one or more of the Air Loop HVAC systems did not appear to converge
   **   ~~~   ** Air System Named = CENTRAL SYSTEM did not converge for mass flow rate
   **   ~~~   ** Check values should be zero. Most Recent values listed first.
   **   ~~~   ** Demand-to-Supply interface mass flow rate check value iteration history trace: 5.563634E-002,5.563634E-002,5.563634E-002,5.563634E-002,5.563634E-002,5.563634E-002,5.563634E-002,5.563634E-002,5.563634E-002,5.563634E-002,
   **   ~~~   ** Supply-to-demand interface deck 1 mass flow rate check value iteration history trace: 5.563634E-002,5.563634E-002,5.563634E-002,5.563634E-002,5.563634E-002,5.563634E-002,5.563634E-002,5.563634E-002,5.563634E-002,5.563634E-002,
   **   ~~~   ** Air System Named = CENTRAL SYSTEM did not converge for energy
   **   ~~~   ** Check values should be zero. Most Recent values listed first.
   **   ~~~   ** Demand-to-Supply interface energy check value iteration history trace: 1112.628548,1112.628548,1112.628548,1112.628547,1112.628547,1112.628547,1112.628547,1112.628547,1112.628547,1112.628547,
   **   ~~~   ** Supply-to-demand interface deck 1 energy check value iteration history trace: 1916.152401,1916.152401,1916.152401,1916.152401,1916.152401,1916.152401,1916.152400,1916.152400,1916.152400,1916.152400,
   ** Warning ** SimHVAC: Maximum iterations (20) exceeded for all HVAC loops, at ANNUAL, 05/07 10:00 - 10:05
   **   ~~~   ** The solution for one or more of the Air Loop HVAC systems did not appear to converge
   **   ~~~   ** Air System Named = CENTRAL SYSTEM did not converge for mass flow rate
   **   ~~~   ** Check values should be zero. Most Recent values listed first.
   **   ~~~   ** Demand-to-Supply interface mass flow rate check value iteration history trace: 6.273129E-002,6.273129E-002,6.273129E-002,6.273129E-002,6.273129E-002,6.273129E-002,6.273129E-002,6.273129E-002,6.273129E-002,6.273129E-002,
   **   ~~~   ** Supply-to-demand interface deck 1 mass flow rate check value iteration history trace: 6.273129E-002,6.273129E-002,6.273129E-002,6.273129E-002,6.273129E-002,6.273129E-002,6.273129E-002,6.273129E-002,6.273129E-002,6.273129E-002,
   **   ~~~   ** Air System Named = CENTRAL SYSTEM did not converge for energy
   **   ~~~   ** Check values should be zero. Most Recent values listed first.
   **   ~~~   ** Demand-to-Supply interface energy check value iteration history trace: 1229.435159,1229.435159,1229.435159,1229.435159,1229.435159,1229.435159,1229.435158,1229.435158,1229.435158,1229.435158,
   **   ~~~   ** Supply-to-demand interface deck 1 energy check value iteration history trace: 2153.030634,2153.030634,2153.030634,2153.030634,2153.030634,2153.030634,2153.030634,2153.030634,2153.030634,2153.030634,
   ** Warning ** SimHVAC: Maximum iterations (20) exceeded for all HVAC loops, at ANNUAL, 05/12 07:11 - 07:15
   **   ~~~   ** The solution for one or more of the Air Loop HVAC systems did not appear to converge
   **   ~~~   ** Air System Named = CENTRAL SYSTEM did not converge for mass flow rate
   **   ~~~   ** Check values should be zero. Most Recent values listed first.
   **   ~~~   ** Demand-to-Supply interface mass flow rate check value iteration history trace: 6.169526E-002,6.169526E-002,6.169526E-002,6.169526E-002,6.169526E-002,6.169526E-002,6.169526E-002,6.169526E-002,6.169526E-002,6.169526E-002,
   **   ~~~   ** Supply-to-demand interface deck 1 mass flow rate check value iteration history trace: 6.169526E-002,6.169526E-002,6.169526E-002,6.169526E-002,6.169526E-002,6.169526E-002,6.169526E-002,6.169526E-002,6.169526E-002,6.169526E-002,
   **   ~~~   ** Air System Named = CENTRAL SYSTEM did not converge for energy
   **   ~~~   ** Check values should be zero. Most Recent values listed first.
   **   ~~~   ** Demand-to-Supply interface energy check value iteration history trace: 1214.319758,1214.319758,1214.319758,1214.319758,1214.319758,1214.319758,1214.319758,1214.319758,1214.319758,1214.319758,
   **   ~~~   ** Supply-to-demand interface deck 1 energy check value iteration history trace: 2150.081352,2150.081352,2150.081352,2150.081352,2150.081352,2150.081352,2150.081351,2150.081351,2150.081351,2150.081351,
   ** Warning ** SimHVAC: Maximum iterations (20) exceeded for all HVAC loops, at ANNUAL, 06/09 03:53 - 04:00
   **   ~~~   ** The solution for one or more of the Air Loop HVAC systems did not appear to converge
   **   ~~~   ** Air System Named = CENTRAL SYSTEM did not converge for mass flow rate
   **   ~~~   ** Check values should be zero. Most Recent values listed first.
   **   ~~~   ** Demand-to-Supply interface mass flow rate check value iteration history trace: 6.438129E-002,6.438129E-002,6.438129E-002,6.438129E-002,6.438129E-002,6.438129E-002,6.438129E-002,6.438129E-002,6.438129E-002,6.438129E-002,
   **   ~~~   ** Supply-to-demand interface deck 1 mass flow rate check value iteration history trace: 6.438129E-002,6.438129E-002,6.438129E-002,6.438129E-002,6.438129E-002,6.438129E-002,6.438129E-002,6.438129E-002,6.438129E-002,6.438129E-002,
   **   ~~~   ** Air System Named = CENTRAL SYSTEM did not converge for energy
   **   ~~~   ** Check values should be zero. Most Recent values listed first.
   **   ~~~   ** Demand-to-Supply interface energy check value iteration history trace: 1598.306402,1598.306402,1598.306403,1598.306403,1598.306404,1598.306404,1598.306405,1598.306405,1598.306406,1598.306406,
   **   ~~~   ** Supply-to-demand interface deck 1 energy check value iteration history trace: 850.378672,850.378673,850.378673,850.378673,850.378673,850.378674,850.378674,850.378674,850.378675,850.378675,
   ** Warning ** SimHVAC: Maximum iterations (20) exceeded for all HVAC loops, at ANNUAL, 06/09 04:40 - 04:45
   **   ~~~   ** The solution for one or more of the Air Loop HVAC systems did not appear to converge
   **   ~~~   ** Air System Named = CENTRAL SYSTEM did not converge for mass flow rate
   **   ~~~   ** Check values should be zero. Most Recent values listed first.
   **   ~~~   ** Demand-to-Supply interface mass flow rate check value iteration history trace: 0.231755,0.231755,0.231755,0.231755,0.231755,0.231755,0.231755,0.231755,0.231755,0.231755,
   **   ~~~   ** Supply-to-demand interface deck 1 mass flow rate check value iteration history trace: 0.231755,0.231755,0.231755,0.231755,0.231755,0.231755,0.231755,0.231755,0.231755,0.231755,
   **   ~~~   ** Air System Named = CENTRAL SYSTEM did not converge for energy
   **   ~~~   ** Check values should be zero. Most Recent values listed first.
   **   ~~~   ** Demand-to-Supply interface energy check value iteration history trace: 5782.265553,5782.265555,5782.265557,5782.265559,5782.265561,5782.265563,5782.265565,5782.265567,5782.265569,5782.265571,
   **   ~~~   ** Supply-to-demand interface deck 1 energy check value iteration history trace: 3122.355179,3122.355180,3122.355181,3122.355182,3122.355183,3122.355184,3122.355185,3122.355186,3122.355187,3122.355188,
   ************* Simulation Error Summary *************
   ** Warning ** The following Report Variables were requested but not generated -- check.rdd file
   **   ~~~   ** Either the IDF did not contain these elements, the variable name is misspelled,
   **   ~~~   ** or the requested variable is an advanced output which requires Output : Diagnostics, DisplayAdvancedReportVariables;
   ************* Key=*, VarName=BASEBOARD TOTAL HEATING ENERGY, Frequency=
   ************* Key=*, VarName=WATER HEATER NATURALGAS ENERGY, Frequency=
   ************* Key=*, VarName=COOLING COIL TOTAL HEATING ENERGY, Frequency=
   ************* There are 34 unused schedules in input.
   ************* There are 388 unused week schedules in input.
   ************* There are 396 unused day schedules in input.
   ************* Use Output:Diagnostics,DisplayUnusedSchedules; to see them.
   *************
   ************* ===== Recurring Error Summary =====
   ************* The following recurring error messages occurred.
   *************
   *************  ** Warning ** "TOTAL HOT WATER LOAD" - Target water temperature should be less than or equal to the hot water temperature error continues...
   *************  **   ~~~   **   This error occurred 128425 total times;
   *************  **   ~~~   **   during Warmup 0 times;
   *************  **   ~~~   **   during Sizing 0 times.
   *************  **   ~~~   **   Max=10.349857  Min=1.621556E-004
   *************
   *************  ** Warning ** SimHVAC: Exceeding Maximum iterations for all HVAC loops, during ANNUAL continues
   *************  **   ~~~   **   This error occurred 8 total times;
   *************  **   ~~~   **   during Warmup 0 times;
   *************  **   ~~~   **   during Sizing 0 times.
   *************
   *************
   ************* ===== Final Error Summary =====
   ************* The following error categories occurred.  Consider correcting or noting.
   ************* Nominally Unused Constructions
   ************* ..The nominally unused constructions warning is provided to alert you to potential conditions that can cause
   ************* ..extra time during simulation. Each construction is calculated by the algorithm indicated in the HeatBalanceAlgorithm
   ************* ..object. You may remove the constructions indicated (when you use the DisplayExtraWarnings option).
   *************
   ************* EnergyPlus Warmup Error Summary. During Warmup: 1 Warning; 0 Severe Errors.
   ************* EnergyPlus Sizing Error Summary. During Sizing: 4 Warning; 0 Severe Errors.
   ************* EnergyPlus Completed Successfully-- 128466 Warning; 0 Severe Errors; Elapsed Time=00hr 01min 32.51sec
