Program Version,EnergyPlus, Version 22.2.0-c249759bad, YMD=2023.09.01 20:06,
   ************* Beginning Zone Sizing Calculations
   ** Warning ** ProcessScheduleInput: Schedule:Constant="ALWAYS ON DISCRETE", Schedule Type Limits Name="ONOFF" not found -- will not be validated
   ** Warning ** Foundation:Kiva="KIVA FOUNDATION", no Interior Horizontal Insulation Material Name defined
   **   ~~~   ** Interior Horizontal Insulation Depth will not be used.
   ** Warning ** CheckUsedConstructions: There are 15 nominally unused constructions in input.
   **   ~~~   ** Each Unused construction is shown.
   ************* Construction=INTERIOR FLOOR
   ************* Construction=INTERIOR WINDOW
   ************* Construction=EXTERIOR DOOR
   ************* Construction=INTERIOR DOOR
   ************* Construction=GABLE CONSTRUCTION
   ************* Construction=CRAWL_FLOOR
   ************* Construction=INSULATED PIPE
   ************* Construction=PLAIN PIPE
   ************* Construction=TDD PIPE
   ************* Construction=TDD DOME
   ************* Construction=TDD DIFFUSER
   ************* Construction=CRAWL WALL
   ************* Construction=CEILING-FLOOR-LAYER
   ************* Construction=SLAB CONSTRUCTION W FULL R10 INSULATION
   ************* Construction=SLAB CONSTRUCTION W FULL R5 INSULATION
   ** Warning ** GetDXCoils: Coil:Heating:DX:SingleSpeed="DX_HEATING_COIL" curve values
   **   ~~~   ** ... Defrost Energy Input Ratio Function of Temperature Curve Name = DEFROSTEIR output is not equal to 1.0 (+ or - 10%) at rated conditions.
   **   ~~~   ** ... Curve output at rated conditions = 0.152
   ** Warning ** Temperature out of range [-100. to 200.] (PsyPsatFnTemp)
   **   ~~~   **  Routine=PsyTwbFnTdbWPb, During Sizing, Environment=EXTREME_WINTER, at Simulation time=12/24 13:45 - 13:49
   **   ~~~   **  Input Temperature=-496.13
   ************* Beginning System Sizing Calculations
   ************* Beginning Plant Sizing Calculations
   ** Warning ** SizeDXCoil Coil:Cooling:DX:SingleSpeed DX_COOLING_COIL
   **   ~~~   ** ...Gross Rated Total Cooling Capacity [W] will be limited by the maximum rated volume flow per rated total capacity ratio.
   **   ~~~   ** ...DX coil volume flow rate ( m3/s ) = 0.565897
   **   ~~~   ** ...Requested capacity ( W ) = 7498.749
   **   ~~~   ** ...Requested flow/capacity ratio ( m3/s/W ) = 7.546E-005
   **   ~~~   ** ...Maximum flow/capacity ratio ( m3/s/W ) = 6.041E-005
   **   ~~~   ** ...Adjusted capacity ( W ) = 9367.610
   ** Warning ** Coil:WaterHeating:AirToWaterHeatPump:Wrapped "HEAT PUMP WATER HEATER EVAPORATOR": Rated air volume flow rate per watt of rated total water heating capacity is out of range
   **   ~~~   ** Min Rated Vol Flow Per Watt=[4.027E-005], Rated Vol Flow Per Watt=[1.510E-004], Max Rated Vol Flow Per Watt=[8.056E-005]. See Input-Output Reference Manual for valid range.
   ************* SizeFan: : Potential issue with equipment sizing for Fan:OnOff HEAT PUMP WATER HEATER FAN
   **   ~~~   ** User-Specified Maximum Flow Rate [m3/s] = 0.22653
   **   ~~~   ** differs from Design Size Maximum Flow Rate [m3/s] = 7.55250E-002
   **   ~~~   ** This may, or may not, indicate mismatched component sizes.
   **   ~~~   ** Verify that the value entered is intended and is consistent with other components.
   ** Warning ** Water heater = WATER HEATER TANK:  Recovery Efficiency and Energy Factor could not be calculated during the test for standard ratings
   **   ~~~   ** Setpoint was never recovered and/or heater never turned on
   ** Warning ** Check input. Pump nominal power or motor efficiency is set to 0, for pump=MAINS PRESSURE
   ** Warning ** Output:Meter: invalid Key Name="ELECTRIC_RANGE:INTERIOREQUIPMENT:ELECTRICITY" - not found.
   ** Warning ** Output:Meter: invalid Key Name="ELECTRIC_DRYER:INTERIOREQUIPMENT:ELECTRICITY" - not found.
   ** Warning ** Output:Meter: invalid Key Name="HEATRECOVERY:ELECTRICITY" - not found.
   ** Warning ** Output:Meter: invalid Key Name="HEATING:NATURALGAS" - not found.
   ** Warning ** Output:Meter: invalid Key Name="WATERSYSTEMS:NATURALGAS" - not found.
   ** Warning ** Output:Meter: invalid Key Name="PROPANE:FACILITY" - not found.
   ** Warning ** Output:Meter: invalid Key Name="HEATING:PROPANE" - not found.
   ************* Testing Individual Branch Integrity
   ************* All Branches passed integrity testing
   ************* Testing Individual Supply Air Path Integrity
   ************* All Supply Air Paths passed integrity testing
   ************* Testing Individual Return Air Path Integrity
   ************* All Return Air Paths passed integrity testing
   ************* No node connection errors were found.
   ************* Beginning Simulation
   ** Warning ** AirflowNetwork::Solver::validate_distribution: Heat pump water heater is simulated along with an AirflowNetwork but is not included in the AirflowNetwork.
   ** Warning ** CalcEquipmentFlowRates: "TOTAL HOT WATER LOAD" - Target water temperature is greater than the hot water temperature by (4.71 C)
   **   ~~~   **  Environment=EXTREME_WINTER, at Simulation time=12/22 07:00 - 07:15
   **   ~~~   ** ...target water temperature     = 53.33 C
   **   ~~~   ** ...hot water temperature        = 48.63 C
   **   ~~~   ** ...Target water temperature should be less than or equal to the hot water temperature. Verify temperature setpoints and schedules.
   ** Warning ** SimHVAC: Maximum iterations (20) exceeded for all HVAC loops, at EXTREME_WINTER, 12/25 09:45 - 09:48
   **   ~~~   ** The solution for one or more of the Air Loop HVAC systems did not appear to converge
   **   ~~~   ** Air System Named = CENTRAL SYSTEM did not converge for mass flow rate
   **   ~~~   ** Check values should be zero. Most Recent values listed first.
   **   ~~~   ** Demand-to-Supply interface mass flow rate check value iteration history trace: 5.978515E-002,5.978515E-002,5.978515E-002,5.978515E-002,5.978515E-002,5.978515E-002,5.978515E-002,5.978515E-002,5.978515E-002,5.978515E-002,
   **   ~~~   ** Supply-to-demand interface deck 1 mass flow rate check value iteration history trace: 5.978515E-002,5.978515E-002,5.978515E-002,5.978515E-002,5.978515E-002,5.978515E-002,5.978515E-002,5.978515E-002,5.978515E-002,5.978515E-002,
   **   ~~~   ** Air System Named = CENTRAL SYSTEM did not converge for energy
   **   ~~~   ** Check values should be zero. Most Recent values listed first.
   **   ~~~   ** Demand-to-Supply interface energy check value iteration history trace: 1184.741388,1184.741388,1184.741388,1184.741388,1184.741388,1184.741388,1184.741388,1184.741388,1184.741388,1184.741388,
   **   ~~~   ** Supply-to-demand interface deck 1 energy check value iteration history trace: 2187.880885,2187.880885,2187.880885,2187.880885,2187.880885,2187.880885,2187.880885,2187.880885,2187.880885,2187.880885,
   **   ~~~   ** Node named ZONE INLET NODE shows oscillating temperatures across iterations with a repeated value of 36.419314
   **   ~~~   ** Node named ZONE INLET NODE temperature [C] iteration history trace (most recent first): 36.419314,36.419314,36.419314,36.419313,36.419313,36.419313,36.419313,36.419312,36.419312,36.419312,
   ** Warning ** SimHVAC: Maximum iterations (20) exceeded for all HVAC loops, at EXTREME_WINTER, 01/04 11:50 - 11:52
   **   ~~~   ** The solution for one or more of the Air Loop HVAC systems did not appear to converge
   **   ~~~   ** Air System Named = CENTRAL SYSTEM did not converge for mass flow rate
   **   ~~~   ** Check values should be zero. Most Recent values listed first.
   **   ~~~   ** Demand-to-Supply interface mass flow rate check value iteration history trace: 6.743099E-002,6.743099E-002,6.743099E-002,6.743099E-002,6.743099E-002,6.743099E-002,6.743099E-002,6.743099E-002,6.743099E-002,6.743099E-002,
   **   ~~~   ** Supply-to-demand interface deck 1 mass flow rate check value iteration history trace: 6.743099E-002,6.743099E-002,6.743099E-002,6.743099E-002,6.743099E-002,6.743099E-002,6.743099E-002,6.743099E-002,6.743099E-002,6.743099E-002,
   **   ~~~   ** Air System Named = CENTRAL SYSTEM did not converge for energy
   **   ~~~   ** Check values should be zero. Most Recent values listed first.
   **   ~~~   ** Demand-to-Supply interface energy check value iteration history trace: 1329.732903,1329.732903,1329.732902,1329.732902,1329.732902,1329.732902,1329.732902,1329.732902,1329.732902,1329.732902,
   **   ~~~   ** Supply-to-demand interface deck 1 energy check value iteration history trace: 2221.391500,2221.391500,2221.391500,2221.391500,2221.391500,2221.391500,2221.391500,2221.391500,2221.391500,2221.391500,
   ** Warning ** SimHVAC: Maximum iterations (20) exceeded for all HVAC loops, at EXTREME_WINTER, 01/04 19:45 - 20:00
   **   ~~~   ** The solution for one or more of the Air Loop HVAC systems did not appear to converge
   **   ~~~   ** Air System Named = CENTRAL SYSTEM did not converge for mass flow rate
   **   ~~~   ** Check values should be zero. Most Recent values listed first.
   **   ~~~   ** Demand-to-Supply interface mass flow rate check value iteration history trace: 8.828230E-002,8.828230E-002,8.828230E-002,8.828230E-002,8.828230E-002,8.828230E-002,8.828230E-002,8.828230E-002,8.828230E-002,8.828230E-002,
   **   ~~~   ** Supply-to-demand interface deck 1 mass flow rate check value iteration history trace: 8.828230E-002,8.828230E-002,8.828230E-002,8.828230E-002,8.828230E-002,8.828230E-002,8.828230E-002,8.828230E-002,8.828230E-002,8.828230E-002,
   **   ~~~   ** Air System Named = CENTRAL SYSTEM did not converge for energy
   **   ~~~   ** Check values should be zero. Most Recent values listed first.
   **   ~~~   ** Demand-to-Supply interface energy check value iteration history trace: 1758.134095,1758.134095,1758.134095,1758.134095,1758.134095,1758.134095,1758.134095,1758.134095,1758.134095,1758.134094,
   **   ~~~   ** Supply-to-demand interface deck 1 energy check value iteration history trace: 2799.176056,2799.176056,2799.176055,2799.176055,2799.176055,2799.176055,2799.176055,2799.176055,2799.176054,2799.176054,
   ** Warning ** SimHVAC: Maximum iterations (20) exceeded for all HVAC loops, at ANNUAL, 01/01 13:15 - 13:19
   **   ~~~   ** The solution for one or more of the Air Loop HVAC systems did not appear to converge
   **   ~~~   ** Air System Named = CENTRAL SYSTEM did not converge for mass flow rate
   **   ~~~   ** Check values should be zero. Most Recent values listed first.
   **   ~~~   ** Demand-to-Supply interface mass flow rate check value iteration history trace: 6.533758E-002,6.533758E-002,6.533758E-002,6.533758E-002,6.533758E-002,6.533758E-002,6.533758E-002,6.533758E-002,6.533758E-002,6.533758E-002,
   **   ~~~   ** Supply-to-demand interface deck 1 mass flow rate check value iteration history trace: 6.533758E-002,6.533758E-002,6.533758E-002,6.533758E-002,6.533758E-002,6.533758E-002,6.533758E-002,6.533758E-002,6.533758E-002,6.533758E-002,
   **   ~~~   ** Air System Named = CENTRAL SYSTEM did not converge for energy
   **   ~~~   ** Check values should be zero. Most Recent values listed first.
   **   ~~~   ** Demand-to-Supply interface energy check value iteration history trace: 1288.267701,1288.267701,1288.267701,1288.267701,1288.267701,1288.267701,1288.267701,1288.267701,1288.267700,1288.267700,
   **   ~~~   ** Supply-to-demand interface deck 1 energy check value iteration history trace: 1999.137299,1999.137299,1999.137299,1999.137299,1999.137299,1999.137298,1999.137298,1999.137298,1999.137298,1999.137298,
   ** Warning ** SimHVAC: Maximum iterations (20) exceeded for all HVAC loops, at ANNUAL, 01/03 12:34 - 12:38
   **   ~~~   ** The solution for one or more of the Air Loop HVAC systems did not appear to converge
   **   ~~~   ** Air System Named = CENTRAL SYSTEM did not converge for mass flow rate
   **   ~~~   ** Check values should be zero. Most Recent values listed first.
   **   ~~~   ** Demand-to-Supply interface mass flow rate check value iteration history trace: 7.212448E-002,7.212448E-002,7.212448E-002,7.212448E-002,7.212448E-002,7.212448E-002,7.212448E-002,7.212448E-002,7.212448E-002,7.212448E-002,
   **   ~~~   ** Supply-to-demand interface deck 1 mass flow rate check value iteration history trace: 7.212448E-002,7.212448E-002,7.212448E-002,7.212448E-002,7.212448E-002,7.212448E-002,7.212448E-002,7.212448E-002,7.212448E-002,7.212448E-002,
   **   ~~~   ** Air System Named = CENTRAL SYSTEM did not converge for energy
   **   ~~~   ** Check values should be zero. Most Recent values listed first.
   **   ~~~   ** Demand-to-Supply interface energy check value iteration history trace: 1429.383915,1429.383915,1429.383915,1429.383914,1429.383914,1429.383914,1429.383914,1429.383914,1429.383914,1429.383914,
   **   ~~~   ** Supply-to-demand interface deck 1 energy check value iteration history trace: 2324.541859,2324.541859,2324.541859,2324.541859,2324.541859,2324.541858,2324.541858,2324.541858,2324.541858,2324.541858,
   ** Warning ** SimHVAC: Maximum iterations (20) exceeded for all HVAC loops, at ANNUAL, 01/05 22:10 - 22:15
   **   ~~~   ** The solution for one or more of the Air Loop HVAC systems did not appear to converge
   **   ~~~   ** Air System Named = CENTRAL SYSTEM did not converge for mass flow rate
   **   ~~~   ** Check values should be zero. Most Recent values listed first.
   **   ~~~   ** Demand-to-Supply interface mass flow rate check value iteration history trace: 7.244587E-002,7.244587E-002,7.244587E-002,7.244587E-002,7.244587E-002,7.244587E-002,7.244587E-002,7.244587E-002,7.244587E-002,7.244587E-002,
   **   ~~~   ** Supply-to-demand interface deck 1 mass flow rate check value iteration history trace: 7.244587E-002,7.244587E-002,7.244587E-002,7.244587E-002,7.244587E-002,7.244587E-002,7.244587E-002,7.244587E-002,7.244587E-002,7.244587E-002,
   **   ~~~   ** Air System Named = CENTRAL SYSTEM did not converge for energy
   **   ~~~   ** Check values should be zero. Most Recent values listed first.
   **   ~~~   ** Demand-to-Supply interface energy check value iteration history trace: 1370.812797,1370.812797,1370.812796,1370.812796,1370.812796,1370.812796,1370.812796,1370.812796,1370.812796,1370.812796,
   **   ~~~   ** Supply-to-demand interface deck 1 energy check value iteration history trace: 2268.008012,2268.008012,2268.008011,2268.008011,2268.008011,2268.008011,2268.008011,2268.008011,2268.008011,2268.008011,
   ** Warning ** SimHVAC: Maximum iterations (20) exceeded for all HVAC loops, at ANNUAL, 01/24 09:45 - 09:47
   **   ~~~   ** The solution for one or more of the Air Loop HVAC systems did not appear to converge
   **   ~~~   ** Air System Named = CENTRAL SYSTEM did not converge for mass flow rate
   **   ~~~   ** Check values should be zero. Most Recent values listed first.
   **   ~~~   ** Demand-to-Supply interface mass flow rate check value iteration history trace: 8.256601E-002,8.256601E-002,8.256601E-002,8.256601E-002,8.256601E-002,8.256601E-002,8.256601E-002,8.256601E-002,8.256601E-002,8.256601E-002,
   **   ~~~   ** Supply-to-demand interface deck 1 mass flow rate check value iteration history trace: 8.256601E-002,8.256601E-002,8.256601E-002,8.256601E-002,8.256601E-002,8.256601E-002,8.256601E-002,8.256601E-002,8.256601E-002,8.256601E-002,
   **   ~~~   ** Air System Named = CENTRAL SYSTEM did not converge for energy
   **   ~~~   ** Check values should be zero. Most Recent values listed first.
   **   ~~~   ** Demand-to-Supply interface energy check value iteration history trace: 1636.149699,1636.149698,1636.149698,1636.149698,1636.149698,1636.149698,1636.149698,1636.149698,1636.149698,1636.149698,
   **   ~~~   ** Supply-to-demand interface deck 1 energy check value iteration history trace: 2697.555054,2697.555054,2697.555054,2697.555054,2697.555054,2697.555053,2697.555053,2697.555053,2697.555053,2697.555053,
   ** Warning ** SimHVAC: Maximum iterations (20) exceeded for all HVAC loops, at ANNUAL, 01/27 09:45 - 09:47
   **   ~~~   ** The solution for one or more of the Air Loop HVAC systems did not appear to converge
   **   ~~~   ** Air System Named = CENTRAL SYSTEM did not converge for mass flow rate
   **   ~~~   ** Check values should be zero. Most Recent values listed first.
   **   ~~~   ** Demand-to-Supply interface mass flow rate check value iteration history trace: 8.685040E-002,8.685040E-002,8.685040E-002,8.685040E-002,8.685040E-002,8.685040E-002,8.685040E-002,8.685040E-002,8.685040E-002,8.685040E-002,
   **   ~~~   ** Supply-to-demand interface deck 1 mass flow rate check value iteration history trace: 8.685040E-002,8.685040E-002,8.685040E-002,8.685040E-002,8.685040E-002,8.685040E-002,8.685040E-002,8.685040E-002,8.685040E-002,8.685040E-002,
   **   ~~~   ** Air System Named = CENTRAL SYSTEM did not converge for energy
   **   ~~~   ** Check values should be zero. Most Recent values listed first.
   **   ~~~   ** Demand-to-Supply interface energy check value iteration history trace: 1721.022119,1721.022119,1721.022119,1721.022119,1721.022119,1721.022119,1721.022119,1721.022119,1721.022118,1721.022118,
   **   ~~~   ** Supply-to-demand interface deck 1 energy check value iteration history trace: 2822.744463,2822.744463,2822.744463,2822.744463,2822.744463,2822.744462,2822.744462,2822.744462,2822.744462,2822.744462,
   ** Warning ** SimHVAC: Maximum iterations (20) exceeded for all HVAC loops, at ANNUAL, 02/19 08:32 - 08:35
   **   ~~~   ** The solution for one or more of the Air Loop HVAC systems did not appear to converge
   **   ~~~   ** Air System Named = CENTRAL SYSTEM did not converge for mass flow rate
   **   ~~~   ** Check values should be zero. Most Recent values listed first.
   **   ~~~   ** Demand-to-Supply interface mass flow rate check value iteration history trace: 7.220517E-002,7.220517E-002,7.220517E-002,7.220517E-002,7.220517E-002,7.220517E-002,7.220517E-002,7.220517E-002,7.220517E-002,7.220517E-002,
   **   ~~~   ** Supply-to-demand interface deck 1 mass flow rate check value iteration history trace: 7.220517E-002,7.220517E-002,7.220517E-002,7.220517E-002,7.220517E-002,7.220517E-002,7.220517E-002,7.220517E-002,7.220517E-002,7.220517E-002,
   **   ~~~   ** Air System Named = CENTRAL SYSTEM did not converge for energy
   **   ~~~   ** Check values should be zero. Most Recent values listed first.
   **   ~~~   ** Demand-to-Supply interface energy check value iteration history trace: 1427.804583,1427.804582,1427.804582,1427.804582,1427.804582,1427.804582,1427.804582,1427.804582,1427.804582,1427.804582,
   **   ~~~   ** Supply-to-demand interface deck 1 energy check value iteration history trace: 2343.313157,2343.313156,2343.313156,2343.313156,2343.313156,2343.313156,2343.313156,2343.313156,2343.313156,2343.313155,
   ** Warning ** SimHVAC: Maximum iterations (20) exceeded for all HVAC loops, at ANNUAL, 03/01 11:00 - 11:15
   **   ~~~   ** The solution for one or more of the Air Loop HVAC systems did not appear to converge
   **   ~~~   ** Air System Named = CENTRAL SYSTEM did not converge for mass flow rate
   **   ~~~   ** Check values should be zero. Most Recent values listed first.
   **   ~~~   ** Demand-to-Supply interface mass flow rate check value iteration history trace: 6.859828E-002,6.859828E-002,6.859828E-002,6.859828E-002,6.859828E-002,6.859828E-002,6.859828E-002,6.859828E-002,6.859828E-002,6.859828E-002,
   **   ~~~   ** Supply-to-demand interface deck 1 mass flow rate check value iteration history trace: 6.859828E-002,6.859828E-002,6.859828E-002,6.859828E-002,6.859828E-002,6.859828E-002,6.859828E-002,6.859828E-002,6.859828E-002,6.859828E-002,
   **   ~~~   ** Air System Named = CENTRAL SYSTEM did not converge for energy
   **   ~~~   ** Check values should be zero. Most Recent values listed first.
   **   ~~~   ** Demand-to-Supply interface energy check value iteration history trace: 1346.002152,1346.002151,1346.002151,1346.002151,1346.002151,1346.002151,1346.002151,1346.002151,1346.002151,1346.002151,
   **   ~~~   ** Supply-to-demand interface deck 1 energy check value iteration history trace: 2254.162589,2254.162589,2254.162589,2254.162589,2254.162589,2254.162589,2254.162589,2254.162589,2254.162588,2254.162588,
   ** Warning ** SimHVAC: Maximum iterations (20) exceeded for all HVAC loops, at ANNUAL, 03/03 11:15 - 11:19
   **   ~~~   ** The solution for one or more of the Air Loop HVAC systems did not appear to converge
   **   ~~~   ** Air System Named = CENTRAL SYSTEM did not converge for mass flow rate
   **   ~~~   ** Check values should be zero. Most Recent values listed first.
   **   ~~~   ** Demand-to-Supply interface mass flow rate check value iteration history trace: 7.367411E-002,7.367411E-002,7.367411E-002,7.367411E-002,7.367411E-002,7.367411E-002,7.367411E-002,7.367411E-002,7.367411E-002,7.367411E-002,
   **   ~~~   ** Supply-to-demand interface deck 1 mass flow rate check value iteration history trace: 7.367411E-002,7.367411E-002,7.367411E-002,7.367411E-002,7.367411E-002,7.367411E-002,7.367411E-002,7.367411E-002,7.367411E-002,7.367411E-002,
   **   ~~~   ** Air System Named = CENTRAL SYSTEM did not converge for energy
   **   ~~~   ** Check values should be zero. Most Recent values listed first.
   **   ~~~   ** Demand-to-Supply interface energy check value iteration history trace: 1460.003846,1460.003846,1460.003846,1460.003846,1460.003846,1460.003846,1460.003846,1460.003846,1460.003845,1460.003845,
   **   ~~~   ** Supply-to-demand interface deck 1 energy check value iteration history trace: 2356.515467,2356.515466,2356.515466,2356.515466,2356.515466,2356.515466,2356.515466,2356.515466,2356.515465,2356.515465,
   ** Warning ** SimHVAC: Maximum iterations (20) exceeded for all HVAC loops, at ANNUAL, 03/10 10:15 - 10:22
   **   ~~~   ** The solution for one or more of the Air Loop HVAC systems did not appear to converge
   **   ~~~   ** Air System Named = CENTRAL SYSTEM did not converge for mass flow rate
   **   ~~~   ** Check values should be zero. Most Recent values listed first.
   **   ~~~   ** Demand-to-Supply interface mass flow rate check value iteration history trace: 5.461290E-002,5.461290E-002,5.461290E-002,5.461290E-002,5.461290E-002,5.461290E-002,5.461290E-002,5.461290E-002,5.461290E-002,5.461290E-002,
   **   ~~~   ** Supply-to-demand interface deck 1 mass flow rate check value iteration history trace: 5.461290E-002,5.461290E-002,5.461290E-002,5.461290E-002,5.461290E-002,5.461290E-002,5.461290E-002,5.461290E-002,5.461290E-002,5.461290E-002,
   **   ~~~   ** Air System Named = CENTRAL SYSTEM did not converge for energy
   **   ~~~   ** Check values should be zero. Most Recent values listed first.
   **   ~~~   ** Demand-to-Supply interface energy check value iteration history trace: 1077.485246,1077.485246,1077.485246,1077.485246,1077.485246,1077.485246,1077.485246,1077.485246,1077.485246,1077.485246,
   **   ~~~   ** Supply-to-demand interface deck 1 energy check value iteration history trace: 2075.778798,2075.778798,2075.778798,2075.778798,2075.778798,2075.778798,2075.778798,2075.778798,2075.778798,2075.778798,
   ** Warning ** SimHVAC: Maximum iterations (20) exceeded for all HVAC loops, at ANNUAL, 04/02 09:38 - 09:45
   **   ~~~   ** The solution for one or more of the Air Loop HVAC systems did not appear to converge
   **   ~~~   ** Air System Named = CENTRAL SYSTEM did not converge for mass flow rate
   **   ~~~   ** Check values should be zero. Most Recent values listed first.
   **   ~~~   ** Demand-to-Supply interface mass flow rate check value iteration history trace: 6.430803E-002,6.430803E-002,6.430803E-002,6.430803E-002,6.430803E-002,6.430803E-002,6.430803E-002,6.430803E-002,6.430803E-002,6.430803E-002,
   **   ~~~   ** Supply-to-demand interface deck 1 mass flow rate check value iteration history trace: 6.430803E-002,6.430803E-002,6.430803E-002,6.430803E-002,6.430803E-002,6.430803E-002,6.430803E-002,6.430803E-002,6.430803E-002,6.430803E-002,
   **   ~~~   ** Air System Named = CENTRAL SYSTEM did not converge for energy
   **   ~~~   ** Check values should be zero. Most Recent values listed first.
   **   ~~~   ** Demand-to-Supply interface energy check value iteration history trace: 1268.115351,1268.115351,1268.115351,1268.115351,1268.115351,1268.115351,1268.115351,1268.115351,1268.115351,1268.115351,
   **   ~~~   ** Supply-to-demand interface deck 1 energy check value iteration history trace: 2302.563287,2302.563287,2302.563287,2302.563286,2302.563286,2302.563286,2302.563286,2302.563286,2302.563286,2302.563286,
   ** Warning ** SimHVAC: Maximum iterations (20) exceeded for all HVAC loops, at ANNUAL, 04/07 08:45 - 08:48
   **   ~~~   ** The solution for one or more of the Air Loop HVAC systems did not appear to converge
   **   ~~~   ** Air System Named = CENTRAL SYSTEM did not converge for mass flow rate
   **   ~~~   ** Check values should be zero. Most Recent values listed first.
   **   ~~~   ** Demand-to-Supply interface mass flow rate check value iteration history trace: 6.372456E-002,6.372456E-002,6.372456E-002,6.372456E-002,6.372456E-002,6.372456E-002,6.372456E-002,6.372456E-002,6.372456E-002,6.372456E-002,
   **   ~~~   ** Supply-to-demand interface deck 1 mass flow rate check value iteration history trace: 6.372456E-002,6.372456E-002,6.372456E-002,6.372456E-002,6.372456E-002,6.372456E-002,6.372456E-002,6.372456E-002,6.372456E-002,6.372456E-002,
   **   ~~~   ** Air System Named = CENTRAL SYSTEM did not converge for energy
   **   ~~~   ** Check values should be zero. Most Recent values listed first.
   **   ~~~   ** Demand-to-Supply interface energy check value iteration history trace: 1260.571763,1260.571763,1260.571763,1260.571763,1260.571763,1260.571763,1260.571763,1260.571763,1260.571763,1260.571763,
   **   ~~~   ** Supply-to-demand interface deck 1 energy check value iteration history trace: 2140.910804,2140.910804,2140.910804,2140.910804,2140.910803,2140.910803,2140.910803,2140.910803,2140.910803,2140.910803,
   ************* Simulation Error Summary *************
   ** Warning ** The following Report Variables were requested but not generated -- check.rdd file
   **   ~~~   ** Either the IDF did not contain these elements, the variable name is misspelled,
   **   ~~~   ** or the requested variable is an advanced output which requires Output : Diagnostics, DisplayAdvancedReportVariables;
   ************* Key=*, VarName=BASEBOARD TOTAL HEATING ENERGY, Frequency=
   ************* Key=*, VarName=WATER HEATER NATURALGAS ENERGY, Frequency=
   ************* Key=*, VarName=COOLING COIL TOTAL HEATING ENERGY, Frequency=
   ************* There are 34 unused schedules in input.
   ************* There are 388 unused week schedules in input.
   ************* There are 396 unused day schedules in input.
   ************* Use Output:Diagnostics,DisplayUnusedSchedules; to see them.
   *************
   ************* ===== Recurring Error Summary =====
   ************* The following recurring error messages occurred.
   *************
   *************  ** Warning ** Temperature out of range [-100. to 200.] (PsyPsatFnTemp)
   *************  **   ~~~   **   This error occurred 2 total times;
   *************  **   ~~~   **   during Warmup 0 times;
   *************  **   ~~~   **   during Sizing 1 times.
   *************  **   ~~~   **   Max=-496.13501 C  Min=-496.13501 C
   *************
   *************  ** Warning ** "TOTAL HOT WATER LOAD" - Target water temperature should be less than or equal to the hot water temperature error continues...
   *************  **   ~~~   **   This error occurred 212499 total times;
   *************  **   ~~~   **   during Warmup 0 times;
   *************  **   ~~~   **   during Sizing 0 times.
   *************  **   ~~~   **   Max=11.913176  Min=8.118362E-004
   *************
   *************  ** Warning ** SimHVAC: Exceeding Maximum iterations for all HVAC loops, during ANNUAL continues
   *************  **   ~~~   **   This error occurred 14 total times;
   *************  **   ~~~   **   during Warmup 0 times;
   *************  **   ~~~   **   during Sizing 0 times.
   *************
   *************
   ************* ===== Final Error Summary =====
   ************* The following error categories occurred.  Consider correcting or noting.
   ************* Nominally Unused Constructions
   ************* ..The nominally unused constructions warning is provided to alert you to potential conditions that can cause
   ************* ..extra time during simulation. Each construction is calculated by the algorithm indicated in the HeatBalanceAlgorithm
   ************* ..object. You may remove the constructions indicated (when you use the DisplayExtraWarnings option).
   *************
   ************* EnergyPlus Warmup Error Summary. During Warmup: 1 Warning; 0 Severe Errors.
   ************* EnergyPlus Sizing Error Summary. During Sizing: 4 Warning; 0 Severe Errors.
   ************* EnergyPlus Completed Successfully-- 212547 Warning; 0 Severe Errors; Elapsed Time=00hr 01min 53.66sec
