Program Version,EnergyPlus, Version 22.2.0-c249759bad, YMD=2023.09.01 20:12,
   ************* Beginning Zone Sizing Calculations
   ** Warning ** ProcessScheduleInput: Schedule:Constant="ALWAYS ON DISCRETE", Schedule Type Limits Name="ONOFF" not found -- will not be validated
   ** Warning ** Foundation:Kiva="KIVA FOUNDATION", no Interior Horizontal Insulation Material Name defined
   **   ~~~   ** Interior Horizontal Insulation Depth will not be used.
   ** Warning ** CheckUsedConstructions: There are 15 nominally unused constructions in input.
   **   ~~~   ** Each Unused construction is shown.
   ************* Construction=INTERIOR FLOOR
   ************* Construction=INTERIOR WINDOW
   ************* Construction=EXTERIOR DOOR
   ************* Construction=INTERIOR DOOR
   ************* Construction=GABLE CONSTRUCTION
   ************* Construction=CRAWL_FLOOR
   ************* Construction=INSULATED PIPE
   ************* Construction=PLAIN PIPE
   ************* Construction=TDD PIPE
   ************* Construction=TDD DOME
   ************* Construction=TDD DIFFUSER
   ************* Construction=CRAWL WALL
   ************* Construction=CEILING-FLOOR-LAYER
   ************* Construction=SLAB CONSTRUCTION W FULL R10 INSULATION
   ************* Construction=SLAB CONSTRUCTION W FULL R5 INSULATION
   ** Warning ** GetDXCoils: Coil:Heating:DX:SingleSpeed="DX_HEATING_COIL" curve values
   **   ~~~   ** ... Defrost Energy Input Ratio Function of Temperature Curve Name = DEFROSTEIR output is not equal to 1.0 (+ or - 10%) at rated conditions.
   **   ~~~   ** ... Curve output at rated conditions = 0.152
   ************* Beginning System Sizing Calculations
   ************* Beginning Plant Sizing Calculations
   ** Warning ** SizeDXCoil Coil:Cooling:DX:SingleSpeed DX_COOLING_COIL
   **   ~~~   ** ...Gross Rated Total Cooling Capacity [W] will be limited by the maximum rated volume flow per rated total capacity ratio.
   **   ~~~   ** ...DX coil volume flow rate ( m3/s ) = 0.460058
   **   ~~~   ** ...Requested capacity ( W ) = 6697.060
   **   ~~~   ** ...Requested flow/capacity ratio ( m3/s/W ) = 6.869E-005
   **   ~~~   ** ...Maximum flow/capacity ratio ( m3/s/W ) = 6.041E-005
   **   ~~~   ** ...Adjusted capacity ( W ) = 7615.608
   ** Warning ** Coil:WaterHeating:AirToWaterHeatPump:Wrapped "HEAT PUMP WATER HEATER EVAPORATOR": Rated air volume flow rate per watt of rated total water heating capacity is out of range
   **   ~~~   ** Min Rated Vol Flow Per Watt=[4.027E-005], Rated Vol Flow Per Watt=[1.510E-004], Max Rated Vol Flow Per Watt=[8.056E-005]. See Input-Output Reference Manual for valid range.
   ************* SizeFan: : Potential issue with equipment sizing for Fan:OnOff HEAT PUMP WATER HEATER FAN
   **   ~~~   ** User-Specified Maximum Flow Rate [m3/s] = 0.22653
   **   ~~~   ** differs from Design Size Maximum Flow Rate [m3/s] = 7.55250E-002
   **   ~~~   ** This may, or may not, indicate mismatched component sizes.
   **   ~~~   ** Verify that the value entered is intended and is consistent with other components.
   ** Warning ** Water heater = WATER HEATER TANK:  Recovery Efficiency and Energy Factor could not be calculated during the test for standard ratings
   **   ~~~   ** Setpoint was never recovered and/or heater never turned on
   ** Warning ** Check input. Pump nominal power or motor efficiency is set to 0, for pump=MAINS PRESSURE
   ** Warning ** Output:Meter: invalid Key Name="ELECTRIC_RANGE:INTERIOREQUIPMENT:ELECTRICITY" - not found.
   ** Warning ** Output:Meter: invalid Key Name="ELECTRIC_DRYER:INTERIOREQUIPMENT:ELECTRICITY" - not found.
   ** Warning ** Output:Meter: invalid Key Name="HEATRECOVERY:ELECTRICITY" - not found.
   ** Warning ** Output:Meter: invalid Key Name="HEATING:NATURALGAS" - not found.
   ** Warning ** Output:Meter: invalid Key Name="WATERSYSTEMS:NATURALGAS" - not found.
   ** Warning ** Output:Meter: invalid Key Name="PROPANE:FACILITY" - not found.
   ** Warning ** Output:Meter: invalid Key Name="HEATING:PROPANE" - not found.
   ************* Testing Individual Branch Integrity
   ************* All Branches passed integrity testing
   ************* Testing Individual Supply Air Path Integrity
   ************* All Supply Air Paths passed integrity testing
   ************* Testing Individual Return Air Path Integrity
   ************* All Return Air Paths passed integrity testing
   ************* No node connection errors were found.
   ************* Beginning Simulation
   ** Warning ** AirflowNetwork::Solver::validate_distribution: Heat pump water heater is simulated along with an AirflowNetwork but is not included in the AirflowNetwork.
   ** Warning ** CalcEquipmentFlowRates: "TOTAL HOT WATER LOAD" - Target water temperature is greater than the hot water temperature by (3.92 C)
   **   ~~~   **  Environment=EXTREME_WINTER, at Simulation time=01/01 07:00 - 07:15
   **   ~~~   ** ...target water temperature     = 53.33 C
   **   ~~~   ** ...hot water temperature        = 49.41 C
   **   ~~~   ** ...Target water temperature should be less than or equal to the hot water temperature. Verify temperature setpoints and schedules.
   ** Warning ** SimHVAC: Maximum iterations (20) exceeded for all HVAC loops, at ANNUAL, 03/01 16:00 - 16:15
   **   ~~~   ** The solution for one or more of the Air Loop HVAC systems did not appear to converge
   **   ~~~   ** Air System Named = CENTRAL SYSTEM did not converge for mass flow rate
   **   ~~~   ** Check values should be zero. Most Recent values listed first.
   **   ~~~   ** Demand-to-Supply interface mass flow rate check value iteration history trace: 6.103935E-002,6.103935E-002,6.103935E-002,6.103935E-002,6.103935E-002,6.103935E-002,6.103935E-002,6.103935E-002,6.103935E-002,6.103935E-002,
   **   ~~~   ** Supply-to-demand interface deck 1 mass flow rate check value iteration history trace: 6.103935E-002,6.103935E-002,6.103935E-002,6.103935E-002,6.103935E-002,6.103935E-002,6.103935E-002,6.103935E-002,6.103935E-002,6.103935E-002,
   **   ~~~   ** Air System Named = CENTRAL SYSTEM did not converge for energy
   **   ~~~   ** Check values should be zero. Most Recent values listed first.
   **   ~~~   ** Demand-to-Supply interface energy check value iteration history trace: 1209.568183,1209.568183,1209.568183,1209.568183,1209.568183,1209.568183,1209.568183,1209.568183,1209.568183,1209.568183,
   **   ~~~   ** Supply-to-demand interface deck 1 energy check value iteration history trace: 2188.054050,2188.054050,2188.054050,2188.054049,2188.054049,2188.054049,2188.054049,2188.054049,2188.054049,2188.054049,
   ** Warning ** SimHVAC: Maximum iterations (20) exceeded for all HVAC loops, at ANNUAL, 03/01 16:00 - 16:05
   **   ~~~   ** The solution for one or more of the Air Loop HVAC systems did not appear to converge
   **   ~~~   ** Air System Named = CENTRAL SYSTEM did not converge for mass flow rate
   **   ~~~   ** Check values should be zero. Most Recent values listed first.
   **   ~~~   ** Demand-to-Supply interface mass flow rate check value iteration history trace: 6.147316E-002,6.147316E-002,6.147316E-002,6.147316E-002,6.147316E-002,6.147316E-002,6.147316E-002,6.147316E-002,6.147316E-002,6.147316E-002,
   **   ~~~   ** Supply-to-demand interface deck 1 mass flow rate check value iteration history trace: 6.147316E-002,6.147316E-002,6.147316E-002,6.147316E-002,6.147316E-002,6.147316E-002,6.147316E-002,6.147316E-002,6.147316E-002,6.147316E-002,
   **   ~~~   ** Air System Named = CENTRAL SYSTEM did not converge for energy
   **   ~~~   ** Check values should be zero. Most Recent values listed first.
   **   ~~~   ** Demand-to-Supply interface energy check value iteration history trace: 1218.015029,1218.015029,1218.015029,1218.015029,1218.015029,1218.015029,1218.015029,1218.015029,1218.015029,1218.015029,
   **   ~~~   ** Supply-to-demand interface deck 1 energy check value iteration history trace: 2203.412337,2203.412337,2203.412337,2203.412337,2203.412337,2203.412336,2203.412336,2203.412336,2203.412336,2203.412336,
   ** Warning ** SimHVAC: Maximum iterations (20) exceeded for all HVAC loops, at ANNUAL, 03/01 17:00 - 17:08
   **   ~~~   ** The solution for one or more of the Air Loop HVAC systems did not appear to converge
   **   ~~~   ** Air System Named = CENTRAL SYSTEM did not converge for mass flow rate
   **   ~~~   ** Check values should be zero. Most Recent values listed first.
   **   ~~~   ** Demand-to-Supply interface mass flow rate check value iteration history trace: 5.650235E-002,5.650235E-002,5.650235E-002,5.650235E-002,5.650235E-002,5.650235E-002,5.650235E-002,5.650235E-002,5.650235E-002,5.650235E-002,
   **   ~~~   ** Supply-to-demand interface deck 1 mass flow rate check value iteration history trace: 5.650235E-002,5.650235E-002,5.650235E-002,5.650235E-002,5.650235E-002,5.650235E-002,5.650235E-002,5.650235E-002,5.650235E-002,5.650235E-002,
   **   ~~~   ** Air System Named = CENTRAL SYSTEM did not converge for energy
   **   ~~~   ** Check values should be zero. Most Recent values listed first.
   **   ~~~   ** Demand-to-Supply interface energy check value iteration history trace: 1117.569902,1117.569902,1117.569902,1117.569902,1117.569902,1117.569902,1117.569902,1117.569902,1117.569902,1117.569902,
   **   ~~~   ** Supply-to-demand interface deck 1 energy check value iteration history trace: 2017.285381,2017.285381,2017.285381,2017.285381,2017.285381,2017.285381,2017.285381,2017.285381,2017.285381,2017.285381,
   ** Warning ** SimHVAC: Maximum iterations (20) exceeded for all HVAC loops, at ANNUAL, 03/02 22:45 - 23:00
   **   ~~~   ** The solution for one or more of the Air Loop HVAC systems did not appear to converge
   **   ~~~   ** Air System Named = CENTRAL SYSTEM did not converge for mass flow rate
   **   ~~~   ** Check values should be zero. Most Recent values listed first.
   **   ~~~   ** Demand-to-Supply interface mass flow rate check value iteration history trace: 5.650397E-002,5.650397E-002,5.650397E-002,5.650397E-002,5.650397E-002,5.650397E-002,5.650397E-002,5.650397E-002,5.650397E-002,5.650397E-002,
   **   ~~~   ** Supply-to-demand interface deck 1 mass flow rate check value iteration history trace: 5.650397E-002,5.650397E-002,5.650397E-002,5.650397E-002,5.650397E-002,5.650397E-002,5.650397E-002,5.650397E-002,5.650397E-002,5.650397E-002,
   **   ~~~   ** Air System Named = CENTRAL SYSTEM did not converge for energy
   **   ~~~   ** Check values should be zero. Most Recent values listed first.
   **   ~~~   ** Demand-to-Supply interface energy check value iteration history trace: 1056.500665,1056.500665,1056.500665,1056.500665,1056.500664,1056.500664,1056.500664,1056.500664,1056.500664,1056.500664,
   **   ~~~   ** Supply-to-demand interface deck 1 energy check value iteration history trace: 1909.057479,1909.057479,1909.057479,1909.057479,1909.057478,1909.057478,1909.057478,1909.057477,1909.057477,1909.057477,
   ** Warning ** SimHVAC: Maximum iterations (20) exceeded for all HVAC loops, at ANNUAL, 03/22 10:48 - 10:51
   **   ~~~   ** The solution for one or more of the Air Loop HVAC systems did not appear to converge
   **   ~~~   ** Air System Named = CENTRAL SYSTEM did not converge for mass flow rate
   **   ~~~   ** Check values should be zero. Most Recent values listed first.
   **   ~~~   ** Demand-to-Supply interface mass flow rate check value iteration history trace: 0.100726,0.100726,0.100726,0.100726,0.100726,0.100726,0.100726,0.100726,0.100726,0.100726,
   **   ~~~   ** Supply-to-demand interface deck 1 mass flow rate check value iteration history trace: 0.100726,0.100726,0.100726,0.100726,0.100726,0.100726,0.100726,0.100726,0.100726,0.100726,
   **   ~~~   ** Air System Named = CENTRAL SYSTEM did not converge for energy
   **   ~~~   ** Check values should be zero. Most Recent values listed first.
   **   ~~~   ** Demand-to-Supply interface energy check value iteration history trace: 1995.804803,1995.804803,1995.804803,1995.804803,1995.804803,1995.804803,1995.804803,1995.804803,1995.804802,1995.804802,
   **   ~~~   ** Supply-to-demand interface deck 1 energy check value iteration history trace: 3053.745875,3053.745874,3053.745874,3053.745874,3053.745874,3053.745874,3053.745873,3053.745873,3053.745873,3053.745873,
   ** Warning ** SimHVAC: Maximum iterations (20) exceeded for all HVAC loops, at ANNUAL, 03/22 18:00 - 18:15
   **   ~~~   ** The solution for one or more of the Air Loop HVAC systems did not appear to converge
   **   ~~~   ** Air System Named = CENTRAL SYSTEM did not converge for mass flow rate
   **   ~~~   ** Check values should be zero. Most Recent values listed first.
   **   ~~~   ** Demand-to-Supply interface mass flow rate check value iteration history trace: 7.246866E-002,7.246866E-002,7.246866E-002,7.246866E-002,7.246866E-002,7.246866E-002,7.246866E-002,7.246866E-002,7.246866E-002,7.246866E-002,
   **   ~~~   ** Supply-to-demand interface deck 1 mass flow rate check value iteration history trace: 7.246866E-002,7.246866E-002,7.246866E-002,7.246866E-002,7.246866E-002,7.246866E-002,7.246866E-002,7.246866E-002,7.246866E-002,7.246866E-002,
   **   ~~~   ** Air System Named = CENTRAL SYSTEM did not converge for energy
   **   ~~~   ** Check values should be zero. Most Recent values listed first.
   **   ~~~   ** Demand-to-Supply interface energy check value iteration history trace: 1410.661112,1410.661112,1410.661112,1410.661112,1410.661112,1410.661111,1410.661111,1410.661111,1410.661111,1410.661111,
   **   ~~~   ** Supply-to-demand interface deck 1 energy check value iteration history trace: 2249.905493,2249.905493,2249.905493,2249.905492,2249.905492,2249.905492,2249.905492,2249.905492,2249.905492,2249.905492,
   ** Warning ** SimHVAC: Maximum iterations (20) exceeded for all HVAC loops, at ANNUAL, 03/27 10:36 - 10:39
   **   ~~~   ** The solution for one or more of the Air Loop HVAC systems did not appear to converge
   **   ~~~   ** Air System Named = CENTRAL SYSTEM did not converge for mass flow rate
   **   ~~~   ** Check values should be zero. Most Recent values listed first.
   **   ~~~   ** Demand-to-Supply interface mass flow rate check value iteration history trace: 6.697568E-002,6.697568E-002,6.697568E-002,6.697568E-002,6.697568E-002,6.697568E-002,6.697568E-002,6.697568E-002,6.697568E-002,6.697568E-002,
   **   ~~~   ** Supply-to-demand interface deck 1 mass flow rate check value iteration history trace: 6.697568E-002,6.697568E-002,6.697568E-002,6.697568E-002,6.697568E-002,6.697568E-002,6.697568E-002,6.697568E-002,6.697568E-002,6.697568E-002,
   **   ~~~   ** Air System Named = CENTRAL SYSTEM did not converge for energy
   **   ~~~   ** Check values should be zero. Most Recent values listed first.
   **   ~~~   ** Demand-to-Supply interface energy check value iteration history trace: 1326.124844,1326.124844,1326.124844,1326.124844,1326.124844,1326.124844,1326.124844,1326.124844,1326.124844,1326.124844,
   **   ~~~   ** Supply-to-demand interface deck 1 energy check value iteration history trace: 2345.600154,2345.600153,2345.600153,2345.600153,2345.600153,2345.600153,2345.600153,2345.600153,2345.600153,2345.600153,
   ** Warning ** SimHVAC: Maximum iterations (20) exceeded for all HVAC loops, at ANNUAL, 04/14 11:45 - 12:00
   **   ~~~   ** The solution for one or more of the Air Loop HVAC systems did not appear to converge
   **   ~~~   ** Air System Named = CENTRAL SYSTEM did not converge for mass flow rate
   **   ~~~   ** Check values should be zero. Most Recent values listed first.
   **   ~~~   ** Demand-to-Supply interface mass flow rate check value iteration history trace: 5.932186E-002,5.932186E-002,5.932186E-002,5.932186E-002,5.932186E-002,5.932186E-002,5.932186E-002,5.932186E-002,5.932186E-002,5.932186E-002,
   **   ~~~   ** Supply-to-demand interface deck 1 mass flow rate check value iteration history trace: 5.932186E-002,5.932186E-002,5.932186E-002,5.932186E-002,5.932186E-002,5.932186E-002,5.932186E-002,5.932186E-002,5.932186E-002,5.932186E-002,
   **   ~~~   ** Air System Named = CENTRAL SYSTEM did not converge for energy
   **   ~~~   ** Check values should be zero. Most Recent values listed first.
   **   ~~~   ** Demand-to-Supply interface energy check value iteration history trace: 1166.450736,1166.450736,1166.450736,1166.450736,1166.450736,1166.450736,1166.450736,1166.450736,1166.450736,1166.450736,
   **   ~~~   ** Supply-to-demand interface deck 1 energy check value iteration history trace: 2061.922885,2061.922885,2061.922885,2061.922885,2061.922885,2061.922885,2061.922884,2061.922884,2061.922884,2061.922884,
   ** Warning ** SimHVAC: Maximum iterations (20) exceeded for all HVAC loops, at ANNUAL, 04/21 10:45 - 10:50
   **   ~~~   ** The solution for one or more of the Air Loop HVAC systems did not appear to converge
   **   ~~~   ** Air System Named = CENTRAL SYSTEM did not converge for mass flow rate
   **   ~~~   ** Check values should be zero. Most Recent values listed first.
   **   ~~~   ** Demand-to-Supply interface mass flow rate check value iteration history trace: 6.880117E-002,6.880117E-002,6.880117E-002,6.880117E-002,6.880117E-002,6.880117E-002,6.880117E-002,6.880117E-002,6.880117E-002,6.880117E-002,
   **   ~~~   ** Supply-to-demand interface deck 1 mass flow rate check value iteration history trace: 6.880117E-002,6.880117E-002,6.880117E-002,6.880117E-002,6.880117E-002,6.880117E-002,6.880117E-002,6.880117E-002,6.880117E-002,6.880117E-002,
   **   ~~~   ** Air System Named = CENTRAL SYSTEM did not converge for energy
   **   ~~~   ** Check values should be zero. Most Recent values listed first.
   **   ~~~   ** Demand-to-Supply interface energy check value iteration history trace: 1358.000159,1358.000159,1358.000159,1358.000159,1358.000158,1358.000158,1358.000158,1358.000158,1358.000158,1358.000158,
   **   ~~~   ** Supply-to-demand interface deck 1 energy check value iteration history trace: 2377.529756,2377.529756,2377.529756,2377.529756,2377.529756,2377.529756,2377.529756,2377.529756,2377.529756,2377.529755,
   ** Warning ** SimHVAC: Maximum iterations (20) exceeded for all HVAC loops, at ANNUAL, 04/24 08:15 - 08:22
   **   ~~~   ** The solution for one or more of the Air Loop HVAC systems did not appear to converge
   **   ~~~   ** Air System Named = CENTRAL SYSTEM did not converge for mass flow rate
   **   ~~~   ** Check values should be zero. Most Recent values listed first.
   **   ~~~   ** Demand-to-Supply interface mass flow rate check value iteration history trace: 5.671538E-002,5.671538E-002,5.671538E-002,5.671538E-002,5.671538E-002,5.671538E-002,5.671538E-002,5.671538E-002,5.671538E-002,5.671538E-002,
   **   ~~~   ** Supply-to-demand interface deck 1 mass flow rate check value iteration history trace: 5.671538E-002,5.671538E-002,5.671538E-002,5.671538E-002,5.671538E-002,5.671538E-002,5.671538E-002,5.671538E-002,5.671538E-002,5.671538E-002,
   **   ~~~   ** Air System Named = CENTRAL SYSTEM did not converge for energy
   **   ~~~   ** Check values should be zero. Most Recent values listed first.
   **   ~~~   ** Demand-to-Supply interface energy check value iteration history trace: 1123.827215,1123.827215,1123.827215,1123.827215,1123.827215,1123.827215,1123.827215,1123.827215,1123.827215,1123.827215,
   **   ~~~   ** Supply-to-demand interface deck 1 energy check value iteration history trace: 2014.405550,2014.405550,2014.405550,2014.405550,2014.405550,2014.405550,2014.405549,2014.405549,2014.405549,2014.405549,
   ** Warning ** SimHVAC: Maximum iterations (20) exceeded for all HVAC loops, at ANNUAL, 06/14 20:08 - 20:15
   **   ~~~   ** The solution for one or more of the Air Loop HVAC systems did not appear to converge
   **   ~~~   ** Air System Named = CENTRAL SYSTEM did not converge for mass flow rate
   **   ~~~   ** Check values should be zero. Most Recent values listed first.
   **   ~~~   ** Demand-to-Supply interface mass flow rate check value iteration history trace: 6.203647E-002,6.203647E-002,6.203647E-002,6.203647E-002,6.203647E-002,6.203647E-002,6.203647E-002,6.203647E-002,6.203647E-002,6.203647E-002,
   **   ~~~   ** Supply-to-demand interface deck 1 mass flow rate check value iteration history trace: 6.203647E-002,6.203647E-002,6.203647E-002,6.203647E-002,6.203647E-002,6.203647E-002,6.203647E-002,6.203647E-002,6.203647E-002,6.203647E-002,
   **   ~~~   ** Air System Named = CENTRAL SYSTEM did not converge for energy
   **   ~~~   ** Check values should be zero. Most Recent values listed first.
   **   ~~~   ** Demand-to-Supply interface energy check value iteration history trace: 1472.358176,1472.358176,1472.358176,1472.358176,1472.358176,1472.358176,1472.358176,1472.358176,1472.358177,1472.358177,
   **   ~~~   ** Supply-to-demand interface deck 1 energy check value iteration history trace: 653.173785,653.173785,653.173785,653.173785,653.173786,653.173786,653.173786,653.173786,653.173786,653.173786,
   ** Warning ** SimHVAC: Maximum iterations (20) exceeded for all HVAC loops, at ANNUAL, 06/27 13:45 - 14:00
   **   ~~~   ** The solution for one or more of the Air Loop HVAC systems did not appear to converge
   **   ~~~   ** Air System Named = CENTRAL SYSTEM did not converge for mass flow rate
   **   ~~~   ** Check values should be zero. Most Recent values listed first.
   **   ~~~   ** Demand-to-Supply interface mass flow rate check value iteration history trace: 0.139940,0.139940,0.139940,0.139940,0.139940,0.139940,0.139940,0.139940,0.139940,0.139940,
   **   ~~~   ** Supply-to-demand interface deck 1 mass flow rate check value iteration history trace: 0.139940,0.139940,0.139940,0.139940,0.139940,0.139940,0.139940,0.139940,0.139940,0.139940,
   **   ~~~   ** Air System Named = CENTRAL SYSTEM did not converge for energy
   **   ~~~   ** Check values should be zero. Most Recent values listed first.
   **   ~~~   ** Demand-to-Supply interface energy check value iteration history trace: 3392.917318,3392.917319,3392.917319,3392.917319,3392.917319,3392.917320,3392.917320,3392.917320,3392.917320,3392.917321,
   **   ~~~   ** Supply-to-demand interface deck 1 energy check value iteration history trace: 1665.355611,1665.355611,1665.355612,1665.355612,1665.355612,1665.355612,1665.355612,1665.355612,1665.355612,1665.355612,
   ** Warning ** SimHVAC: Maximum iterations (20) exceeded for all HVAC loops, at ANNUAL, 06/28 08:19 - 08:22
   **   ~~~   ** The solution for one or more of the Air Loop HVAC systems did not appear to converge
   **   ~~~   ** Air System Named = CENTRAL SYSTEM did not converge for mass flow rate
   **   ~~~   ** Check values should be zero. Most Recent values listed first.
   **   ~~~   ** Demand-to-Supply interface mass flow rate check value iteration history trace: 1.964778E-002,1.964778E-002,1.964778E-002,1.964778E-002,1.964778E-002,1.964778E-002,1.964778E-002,1.964778E-002,1.964778E-002,1.964778E-002,
   **   ~~~   ** Supply-to-demand interface deck 1 mass flow rate check value iteration history trace: 1.964778E-002,1.964778E-002,1.964778E-002,1.964778E-002,1.964778E-002,1.964778E-002,1.964778E-002,1.964778E-002,1.964778E-002,1.964778E-002,
   **   ~~~   ** Air System Named = CENTRAL SYSTEM did not converge for energy
   **   ~~~   ** Check values should be zero. Most Recent values listed first.
   **   ~~~   ** Demand-to-Supply interface energy check value iteration history trace: 460.543824,460.543824,460.543824,460.543824,460.543824,460.543824,460.543824,460.543824,460.543824,460.543824,
   **   ~~~   ** Supply-to-demand interface deck 1 energy check value iteration history trace: 220.064828,220.064828,220.064828,220.064828,220.064828,220.064828,220.064828,220.064828,220.064828,220.064828,
   ** Warning ** SimHVAC: Maximum iterations (20) exceeded for all HVAC loops, at ANNUAL, 10/02 12:30 - 12:45
   **   ~~~   ** The solution for one or more of the Air Loop HVAC systems did not appear to converge
   **   ~~~   ** Air System Named = CENTRAL SYSTEM did not converge for mass flow rate
   **   ~~~   ** Check values should be zero. Most Recent values listed first.
   **   ~~~   ** Demand-to-Supply interface mass flow rate check value iteration history trace: 4.927354E-002,4.927354E-002,4.927354E-002,4.927354E-002,4.927354E-002,4.927354E-002,4.927354E-002,4.927354E-002,4.927354E-002,4.927354E-002,
   **   ~~~   ** Supply-to-demand interface deck 1 mass flow rate check value iteration history trace: 4.927354E-002,4.927354E-002,4.927354E-002,4.927354E-002,4.927354E-002,4.927354E-002,4.927354E-002,4.927354E-002,4.927354E-002,4.927354E-002,
   **   ~~~   ** Air System Named = CENTRAL SYSTEM did not converge for energy
   **   ~~~   ** Check values should be zero. Most Recent values listed first.
   **   ~~~   ** Demand-to-Supply interface energy check value iteration history trace: 977.180589,977.180589,977.180588,977.180588,977.180588,977.180588,977.180587,977.180587,977.180587,977.180587,
   **   ~~~   ** Supply-to-demand interface deck 1 energy check value iteration history trace: 1777.391480,1777.391480,1777.391480,1777.391479,1777.391479,1777.391479,1777.391478,1777.391478,1777.391477,1777.391477,
   **   ~~~   ** Node named ZONE INLET NODE shows oscillating temperatures across iterations with a repeated value of 35.898043
   **   ~~~   ** Node named ZONE INLET NODE temperature [C] iteration history trace (most recent first): 35.898043,35.898042,35.898042,35.898042,35.898041,35.898041,35.898041,35.898041,35.898040,35.898040,
   ************* Simulation Error Summary *************
   ** Warning ** The following Report Variables were requested but not generated -- check.rdd file
   **   ~~~   ** Either the IDF did not contain these elements, the variable name is misspelled,
   **   ~~~   ** or the requested variable is an advanced output which requires Output : Diagnostics, DisplayAdvancedReportVariables;
   ************* Key=*, VarName=BASEBOARD TOTAL HEATING ENERGY, Frequency=
   ************* Key=*, VarName=WATER HEATER NATURALGAS ENERGY, Frequency=
   ************* Key=*, VarName=COOLING COIL TOTAL HEATING ENERGY, Frequency=
   ************* There are 34 unused schedules in input.
   ************* There are 388 unused week schedules in input.
   ************* There are 396 unused day schedules in input.
   ************* Use Output:Diagnostics,DisplayUnusedSchedules; to see them.
   *************
   ************* ===== Recurring Error Summary =====
   ************* The following recurring error messages occurred.
   *************
   *************  ** Warning ** "TOTAL HOT WATER LOAD" - Target water temperature should be less than or equal to the hot water temperature error continues...
   *************  **   ~~~   **   This error occurred 146503 total times;
   *************  **   ~~~   **   during Warmup 0 times;
   *************  **   ~~~   **   during Sizing 0 times.
   *************  **   ~~~   **   Max=14.052357  Min=1.575678E-003
   *************
   *************  ** Warning ** SimHVAC: Exceeding Maximum iterations for all HVAC loops, during ANNUAL continues
   *************  **   ~~~   **   This error occurred 9 total times;
   *************  **   ~~~   **   during Warmup 0 times;
   *************  **   ~~~   **   during Sizing 0 times.
   *************
   *************
   ************* ===== Final Error Summary =====
   ************* The following error categories occurred.  Consider correcting or noting.
   ************* Nominally Unused Constructions
   ************* ..The nominally unused constructions warning is provided to alert you to potential conditions that can cause
   ************* ..extra time during simulation. Each construction is calculated by the algorithm indicated in the HeatBalanceAlgorithm
   ************* ..object. You may remove the constructions indicated (when you use the DisplayExtraWarnings option).
   *************
   ************* EnergyPlus Warmup Error Summary. During Warmup: 1 Warning; 0 Severe Errors.
   ************* EnergyPlus Sizing Error Summary. During Sizing: 4 Warning; 0 Severe Errors.
   ************* EnergyPlus Completed Successfully-- 146544 Warning; 0 Severe Errors; Elapsed Time=00hr 01min 34.09sec
