Program Version,EnergyPlus, Version 22.2.0-c249759bad, YMD=2023.09.01 19:04,
   ************* Beginning Zone Sizing Calculations
   ** Warning ** ProcessScheduleInput: Schedule:Constant="ALWAYS ON DISCRETE", Schedule Type Limits Name="ONOFF" not found -- will not be validated
   ** Warning ** Foundation:Kiva="KIVA FOUNDATION", no Interior Horizontal Insulation Material Name defined
   **   ~~~   ** Interior Horizontal Insulation Depth will not be used.
   ** Warning ** CheckUsedConstructions: There are 15 nominally unused constructions in input.
   **   ~~~   ** Each Unused construction is shown.
   ************* Construction=INTERIOR FLOOR
   ************* Construction=INTERIOR WINDOW
   ************* Construction=EXTERIOR DOOR
   ************* Construction=INTERIOR DOOR
   ************* Construction=GABLE CONSTRUCTION
   ************* Construction=CRAWL_FLOOR
   ************* Construction=INSULATED PIPE
   ************* Construction=PLAIN PIPE
   ************* Construction=TDD PIPE
   ************* Construction=TDD DOME
   ************* Construction=TDD DIFFUSER
   ************* Construction=CRAWL WALL
   ************* Construction=CEILING-FLOOR-LAYER
   ************* Construction=SLAB CONSTRUCTION W FULL R10 INSULATION
   ************* Construction=SLAB CONSTRUCTION W FULL R5 INSULATION
   ** Warning ** GetDXCoils: Coil:Heating:DX:SingleSpeed="DX_HEATING_COIL" curve values
   **   ~~~   ** ... Defrost Energy Input Ratio Function of Temperature Curve Name = DEFROSTEIR output is not equal to 1.0 (+ or - 10%) at rated conditions.
   **   ~~~   ** ... Curve output at rated conditions = 0.152
   ************* Beginning System Sizing Calculations
   ************* Beginning Plant Sizing Calculations
   ** Warning ** SizeDXCoil Coil:Cooling:DX:SingleSpeed DX_COOLING_COIL
   **   ~~~   ** ...Gross Rated Total Cooling Capacity [W] will be limited by the maximum rated volume flow per rated total capacity ratio.
   **   ~~~   ** ...DX coil volume flow rate ( m3/s ) = 0.398938
   **   ~~~   ** ...Requested capacity ( W ) = 5804.609
   **   ~~~   ** ...Requested flow/capacity ratio ( m3/s/W ) = 6.872E-005
   **   ~~~   ** ...Maximum flow/capacity ratio ( m3/s/W ) = 6.041E-005
   **   ~~~   ** ...Adjusted capacity ( W ) = 6603.852
   ** Warning ** Coil:WaterHeating:AirToWaterHeatPump:Wrapped "HEAT PUMP WATER HEATER EVAPORATOR": Rated air volume flow rate per watt of rated total water heating capacity is out of range
   **   ~~~   ** Min Rated Vol Flow Per Watt=[4.027E-005], Rated Vol Flow Per Watt=[1.510E-004], Max Rated Vol Flow Per Watt=[8.056E-005]. See Input-Output Reference Manual for valid range.
   ************* SizeFan: : Potential issue with equipment sizing for Fan:OnOff HEAT PUMP WATER HEATER FAN
   **   ~~~   ** User-Specified Maximum Flow Rate [m3/s] = 0.22653
   **   ~~~   ** differs from Design Size Maximum Flow Rate [m3/s] = 7.55250E-002
   **   ~~~   ** This may, or may not, indicate mismatched component sizes.
   **   ~~~   ** Verify that the value entered is intended and is consistent with other components.
   ** Warning ** Water heater = WATER HEATER TANK:  Recovery Efficiency and Energy Factor could not be calculated during the test for standard ratings
   **   ~~~   ** Setpoint was never recovered and/or heater never turned on
   ** Warning ** Check input. Pump nominal power or motor efficiency is set to 0, for pump=MAINS PRESSURE
   ** Warning ** Output:Meter: invalid Key Name="ELECTRIC_RANGE:INTERIOREQUIPMENT:ELECTRICITY" - not found.
   ** Warning ** Output:Meter: invalid Key Name="ELECTRIC_DRYER:INTERIOREQUIPMENT:ELECTRICITY" - not found.
   ** Warning ** Output:Meter: invalid Key Name="HEATRECOVERY:ELECTRICITY" - not found.
   ** Warning ** Output:Meter: invalid Key Name="HEATING:NATURALGAS" - not found.
   ** Warning ** Output:Meter: invalid Key Name="WATERSYSTEMS:NATURALGAS" - not found.
   ** Warning ** Output:Meter: invalid Key Name="PROPANE:FACILITY" - not found.
   ** Warning ** Output:Meter: invalid Key Name="HEATING:PROPANE" - not found.
   ************* Testing Individual Branch Integrity
   ************* All Branches passed integrity testing
   ************* Testing Individual Supply Air Path Integrity
   ************* All Supply Air Paths passed integrity testing
   ************* Testing Individual Return Air Path Integrity
   ************* All Return Air Paths passed integrity testing
   ************* No node connection errors were found.
   ************* Beginning Simulation
   ** Warning ** AirflowNetwork::Solver::validate_distribution: Heat pump water heater is simulated along with an AirflowNetwork but is not included in the AirflowNetwork.
   ** Warning ** CalcEquipmentFlowRates: "TOTAL HOT WATER LOAD" - Target water temperature is greater than the hot water temperature by (1.64 C)
   **   ~~~   **  Environment=EXTREME_WINTER, at Simulation time=01/06 03:45 - 04:00
   **   ~~~   ** ...target water temperature     = 53.33 C
   **   ~~~   ** ...hot water temperature        = 51.69 C
   **   ~~~   ** ...Target water temperature should be less than or equal to the hot water temperature. Verify temperature setpoints and schedules.
   ** Warning ** SimHVAC: Maximum iterations (20) exceeded for all HVAC loops, at ANNUAL, 02/08 00:00 - 00:15
   **   ~~~   ** The solution for one or more of the Air Loop HVAC systems did not appear to converge
   **   ~~~   ** Air System Named = CENTRAL SYSTEM did not converge for mass flow rate
   **   ~~~   ** Check values should be zero. Most Recent values listed first.
   **   ~~~   ** Demand-to-Supply interface mass flow rate check value iteration history trace: 4.917643E-002,4.917643E-002,4.917643E-002,4.917643E-002,4.917643E-002,4.917643E-002,4.917643E-002,4.917643E-002,4.917643E-002,4.917643E-002,
   **   ~~~   ** Supply-to-demand interface deck 1 mass flow rate check value iteration history trace: 4.917643E-002,4.917643E-002,4.917643E-002,4.917643E-002,4.917643E-002,4.917643E-002,4.917643E-002,4.917643E-002,4.917643E-002,4.917643E-002,
   **   ~~~   ** Air System Named = CENTRAL SYSTEM did not converge for energy
   **   ~~~   ** Check values should be zero. Most Recent values listed first.
   **   ~~~   ** Demand-to-Supply interface energy check value iteration history trace: 910.613084,910.613084,910.613084,910.613084,910.613084,910.613084,910.613084,910.613084,910.613084,910.613084,
   **   ~~~   ** Supply-to-demand interface deck 1 energy check value iteration history trace: 1684.441581,1684.441581,1684.441581,1684.441581,1684.441581,1684.441581,1684.441581,1684.441581,1684.441581,1684.441581,
   ** Warning ** SimHVAC: Maximum iterations (20) exceeded for all HVAC loops, at ANNUAL, 02/10 18:15 - 18:30
   **   ~~~   ** The solution for one or more of the Air Loop HVAC systems did not appear to converge
   **   ~~~   ** Air System Named = CENTRAL SYSTEM did not converge for mass flow rate
   **   ~~~   ** Check values should be zero. Most Recent values listed first.
   **   ~~~   ** Demand-to-Supply interface mass flow rate check value iteration history trace: 5.520358E-002,5.520358E-002,5.520358E-002,5.520358E-002,5.520358E-002,5.520358E-002,5.520358E-002,5.520358E-002,5.520358E-002,5.520358E-002,
   **   ~~~   ** Supply-to-demand interface deck 1 mass flow rate check value iteration history trace: 5.520358E-002,5.520358E-002,5.520358E-002,5.520358E-002,5.520358E-002,5.520358E-002,5.520358E-002,5.520358E-002,5.520358E-002,5.520358E-002,
   **   ~~~   ** Air System Named = CENTRAL SYSTEM did not converge for energy
   **   ~~~   ** Check values should be zero. Most Recent values listed first.
   **   ~~~   ** Demand-to-Supply interface energy check value iteration history trace: 1094.736264,1094.736263,1094.736263,1094.736263,1094.736263,1094.736263,1094.736263,1094.736263,1094.736263,1094.736263,
   **   ~~~   ** Supply-to-demand interface deck 1 energy check value iteration history trace: 1951.039418,1951.039418,1951.039418,1951.039418,1951.039418,1951.039418,1951.039418,1951.039418,1951.039418,1951.039418,
   ** Warning ** SimHVAC: Maximum iterations (20) exceeded for all HVAC loops, at ANNUAL, 02/24 13:30 - 13:45
   **   ~~~   ** The solution for one or more of the Air Loop HVAC systems did not appear to converge
   **   ~~~   ** Air System Named = CENTRAL SYSTEM did not converge for mass flow rate
   **   ~~~   ** Check values should be zero. Most Recent values listed first.
   **   ~~~   ** Demand-to-Supply interface mass flow rate check value iteration history trace: 5.859123E-002,5.859123E-002,5.859123E-002,5.859123E-002,5.859123E-002,5.859123E-002,5.859123E-002,5.859123E-002,5.859123E-002,5.859123E-002,
   **   ~~~   ** Supply-to-demand interface deck 1 mass flow rate check value iteration history trace: 5.859123E-002,5.859123E-002,5.859123E-002,5.859123E-002,5.859123E-002,5.859123E-002,5.859123E-002,5.859123E-002,5.859123E-002,5.859123E-002,
   **   ~~~   ** Air System Named = CENTRAL SYSTEM did not converge for energy
   **   ~~~   ** Check values should be zero. Most Recent values listed first.
   **   ~~~   ** Demand-to-Supply interface energy check value iteration history trace: 1161.045005,1161.045005,1161.045005,1161.045005,1161.045005,1161.045004,1161.045004,1161.045004,1161.045004,1161.045004,
   **   ~~~   ** Supply-to-demand interface deck 1 energy check value iteration history trace: 1739.163626,1739.163626,1739.163626,1739.163626,1739.163625,1739.163625,1739.163625,1739.163625,1739.163625,1739.163625,
   ** Warning ** SimHVAC: Maximum iterations (20) exceeded for all HVAC loops, at ANNUAL, 02/26 15:08 - 15:15
   **   ~~~   ** The solution for one or more of the Air Loop HVAC systems did not appear to converge
   **   ~~~   ** Air System Named = CENTRAL SYSTEM did not converge for mass flow rate
   **   ~~~   ** Check values should be zero. Most Recent values listed first.
   **   ~~~   ** Demand-to-Supply interface mass flow rate check value iteration history trace: 6.641110E-002,6.641110E-002,6.641110E-002,6.641110E-002,6.641110E-002,6.641110E-002,6.641110E-002,6.641110E-002,6.641110E-002,6.641110E-002,
   **   ~~~   ** Supply-to-demand interface deck 1 mass flow rate check value iteration history trace: 6.641110E-002,6.641110E-002,6.641110E-002,6.641110E-002,6.641110E-002,6.641110E-002,6.641110E-002,6.641110E-002,6.641110E-002,6.641110E-002,
   **   ~~~   ** Air System Named = CENTRAL SYSTEM did not converge for energy
   **   ~~~   ** Check values should be zero. Most Recent values listed first.
   **   ~~~   ** Demand-to-Supply interface energy check value iteration history trace: 1315.928010,1315.928010,1315.928010,1315.928010,1315.928010,1315.928010,1315.928010,1315.928010,1315.928010,1315.928010,
   **   ~~~   ** Supply-to-demand interface deck 1 energy check value iteration history trace: 2358.067971,2358.067971,2358.067971,2358.067971,2358.067971,2358.067971,2358.067971,2358.067971,2358.067970,2358.067970,
   ** Warning ** SimHVAC: Maximum iterations (20) exceeded for all HVAC loops, at ANNUAL, 03/20 18:30 - 18:45
   **   ~~~   ** The solution for one or more of the Air Loop HVAC systems did not appear to converge
   **   ~~~   ** Air System Named = CENTRAL SYSTEM did not converge for mass flow rate
   **   ~~~   ** Check values should be zero. Most Recent values listed first.
   **   ~~~   ** Demand-to-Supply interface mass flow rate check value iteration history trace: 7.162067E-002,7.162067E-002,7.162067E-002,7.162067E-002,7.162067E-002,7.162067E-002,7.162067E-002,7.162067E-002,7.162067E-002,7.162067E-002,
   **   ~~~   ** Supply-to-demand interface deck 1 mass flow rate check value iteration history trace: 7.162067E-002,7.162067E-002,7.162067E-002,7.162067E-002,7.162067E-002,7.162067E-002,7.162067E-002,7.162067E-002,7.162067E-002,7.162067E-002,
   **   ~~~   ** Air System Named = CENTRAL SYSTEM did not converge for energy
   **   ~~~   ** Check values should be zero. Most Recent values listed first.
   **   ~~~   ** Demand-to-Supply interface energy check value iteration history trace: 1410.524665,1410.524665,1410.524665,1410.524665,1410.524665,1410.524665,1410.524665,1410.524665,1410.524664,1410.524664,
   **   ~~~   ** Supply-to-demand interface deck 1 energy check value iteration history trace: 2402.756638,2402.756638,2402.756638,2402.756638,2402.756637,2402.756637,2402.756637,2402.756637,2402.756637,2402.756637,
   ** Warning ** SimHVAC: Maximum iterations (20) exceeded for all HVAC loops, at ANNUAL, 03/24 13:00 - 13:15
   **   ~~~   ** The solution for one or more of the Air Loop HVAC systems did not appear to converge
   **   ~~~   ** Air System Named = CENTRAL SYSTEM did not converge for mass flow rate
   **   ~~~   ** Check values should be zero. Most Recent values listed first.
   **   ~~~   ** Demand-to-Supply interface mass flow rate check value iteration history trace: 5.719409E-002,5.719409E-002,5.719409E-002,5.719409E-002,5.719409E-002,5.719409E-002,5.719409E-002,5.719409E-002,5.719409E-002,5.719409E-002,
   **   ~~~   ** Supply-to-demand interface deck 1 mass flow rate check value iteration history trace: 5.719409E-002,5.719409E-002,5.719409E-002,5.719409E-002,5.719409E-002,5.719409E-002,5.719409E-002,5.719409E-002,5.719409E-002,5.719409E-002,
   **   ~~~   ** Air System Named = CENTRAL SYSTEM did not converge for energy
   **   ~~~   ** Check values should be zero. Most Recent values listed first.
   **   ~~~   ** Demand-to-Supply interface energy check value iteration history trace: 1131.621172,1131.621172,1131.621172,1131.621172,1131.621172,1131.621172,1131.621172,1131.621172,1131.621172,1131.621172,
   **   ~~~   ** Supply-to-demand interface deck 1 energy check value iteration history trace: 1943.615941,1943.615941,1943.615941,1943.615941,1943.615941,1943.615941,1943.615941,1943.615940,1943.615940,1943.615940,
   ** Warning ** SimHVAC: Maximum iterations (20) exceeded for all HVAC loops, at ANNUAL, 03/30 09:15 - 09:19
   **   ~~~   ** The solution for one or more of the Air Loop HVAC systems did not appear to converge
   **   ~~~   ** Air System Named = CENTRAL SYSTEM did not converge for mass flow rate
   **   ~~~   ** Check values should be zero. Most Recent values listed first.
   **   ~~~   ** Demand-to-Supply interface mass flow rate check value iteration history trace: 6.034965E-002,6.034965E-002,6.034965E-002,6.034965E-002,6.034965E-002,6.034965E-002,6.034965E-002,6.034965E-002,6.034965E-002,6.034965E-002,
   **   ~~~   ** Supply-to-demand interface deck 1 mass flow rate check value iteration history trace: 6.034965E-002,6.034965E-002,6.034965E-002,6.034965E-002,6.034965E-002,6.034965E-002,6.034965E-002,6.034965E-002,6.034965E-002,6.034965E-002,
   **   ~~~   ** Air System Named = CENTRAL SYSTEM did not converge for energy
   **   ~~~   ** Check values should be zero. Most Recent values listed first.
   **   ~~~   ** Demand-to-Supply interface energy check value iteration history trace: 1195.914359,1195.914359,1195.914359,1195.914359,1195.914359,1195.914359,1195.914359,1195.914359,1195.914359,1195.914359,
   **   ~~~   ** Supply-to-demand interface deck 1 energy check value iteration history trace: 2068.884625,2068.884625,2068.884624,2068.884624,2068.884624,2068.884624,2068.884624,2068.884624,2068.884624,2068.884624,
   ** Warning ** SimHVAC: Maximum iterations (20) exceeded for all HVAC loops, at ANNUAL, 03/31 08:50 - 08:55
   **   ~~~   ** The solution for one or more of the Air Loop HVAC systems did not appear to converge
   **   ~~~   ** Air System Named = CENTRAL SYSTEM did not converge for mass flow rate
   **   ~~~   ** Check values should be zero. Most Recent values listed first.
   **   ~~~   ** Demand-to-Supply interface mass flow rate check value iteration history trace: 5.606220E-002,5.606220E-002,5.606220E-002,5.606220E-002,5.606220E-002,5.606220E-002,5.606220E-002,5.606220E-002,5.606220E-002,5.606220E-002,
   **   ~~~   ** Supply-to-demand interface deck 1 mass flow rate check value iteration history trace: 5.606220E-002,5.606220E-002,5.606220E-002,5.606220E-002,5.606220E-002,5.606220E-002,5.606220E-002,5.606220E-002,5.606220E-002,5.606220E-002,
   **   ~~~   ** Air System Named = CENTRAL SYSTEM did not converge for energy
   **   ~~~   ** Check values should be zero. Most Recent values listed first.
   **   ~~~   ** Demand-to-Supply interface energy check value iteration history trace: 1110.981290,1110.981290,1110.981290,1110.981290,1110.981290,1110.981290,1110.981290,1110.981290,1110.981290,1110.981290,
   **   ~~~   ** Supply-to-demand interface deck 1 energy check value iteration history trace: 2002.073805,2002.073805,2002.073805,2002.073805,2002.073805,2002.073805,2002.073805,2002.073805,2002.073805,2002.073805,
   ** Warning ** SimHVAC: Maximum iterations (20) exceeded for all HVAC loops, at ANNUAL, 04/04 12:00 - 12:08
   **   ~~~   ** The solution for one or more of the Air Loop HVAC systems did not appear to converge
   **   ~~~   ** Air System Named = CENTRAL SYSTEM did not converge for mass flow rate
   **   ~~~   ** Check values should be zero. Most Recent values listed first.
   **   ~~~   ** Demand-to-Supply interface mass flow rate check value iteration history trace: 5.049745E-002,5.049745E-002,5.049745E-002,5.049745E-002,5.049745E-002,5.049745E-002,5.049745E-002,5.049745E-002,5.049745E-002,5.049745E-002,
   **   ~~~   ** Supply-to-demand interface deck 1 mass flow rate check value iteration history trace: 5.049745E-002,5.049745E-002,5.049745E-002,5.049745E-002,5.049745E-002,5.049745E-002,5.049745E-002,5.049745E-002,5.049745E-002,5.049745E-002,
   **   ~~~   ** Air System Named = CENTRAL SYSTEM did not converge for energy
   **   ~~~   ** Check values should be zero. Most Recent values listed first.
   **   ~~~   ** Demand-to-Supply interface energy check value iteration history trace: 998.688946,998.688946,998.688946,998.688946,998.688946,998.688946,998.688946,998.688946,998.688946,998.688946,
   **   ~~~   ** Supply-to-demand interface deck 1 energy check value iteration history trace: 1802.304359,1802.304358,1802.304358,1802.304358,1802.304358,1802.304358,1802.304358,1802.304358,1802.304358,1802.304358,
   ** Warning ** SimHVAC: Maximum iterations (20) exceeded for all HVAC loops, at ANNUAL, 04/10 08:15 - 08:18
   **   ~~~   ** The solution for one or more of the Air Loop HVAC systems did not appear to converge
   **   ~~~   ** Air System Named = CENTRAL SYSTEM did not converge for mass flow rate
   **   ~~~   ** Check values should be zero. Most Recent values listed first.
   **   ~~~   ** Demand-to-Supply interface mass flow rate check value iteration history trace: 5.181385E-002,5.181385E-002,5.181385E-002,5.181385E-002,5.181385E-002,5.181385E-002,5.181385E-002,5.181385E-002,5.181385E-002,5.181385E-002,
   **   ~~~   ** Supply-to-demand interface deck 1 mass flow rate check value iteration history trace: 5.181385E-002,5.181385E-002,5.181385E-002,5.181385E-002,5.181385E-002,5.181385E-002,5.181385E-002,5.181385E-002,5.181385E-002,5.181385E-002,
   **   ~~~   ** Air System Named = CENTRAL SYSTEM did not converge for energy
   **   ~~~   ** Check values should be zero. Most Recent values listed first.
   **   ~~~   ** Demand-to-Supply interface energy check value iteration history trace: 1024.403952,1024.403952,1024.403952,1024.403952,1024.403952,1024.403952,1024.403952,1024.403952,1024.403952,1024.403952,
   **   ~~~   ** Supply-to-demand interface deck 1 energy check value iteration history trace: 1931.275197,1931.275197,1931.275197,1931.275197,1931.275197,1931.275197,1931.275197,1931.275197,1931.275197,1931.275197,
   ** Warning ** SimHVAC: Maximum iterations (20) exceeded for all HVAC loops, at ANNUAL, 04/30 16:08 - 16:15
   **   ~~~   ** The solution for one or more of the Air Loop HVAC systems did not appear to converge
   **   ~~~   ** Air System Named = CENTRAL SYSTEM did not converge for mass flow rate
   **   ~~~   ** Check values should be zero. Most Recent values listed first.
   **   ~~~   ** Demand-to-Supply interface mass flow rate check value iteration history trace: 6.282057E-002,6.282057E-002,6.282057E-002,6.282057E-002,6.282057E-002,6.282057E-002,6.282057E-002,6.282057E-002,6.282057E-002,6.282057E-002,
   **   ~~~   ** Supply-to-demand interface deck 1 mass flow rate check value iteration history trace: 6.282057E-002,6.282057E-002,6.282057E-002,6.282057E-002,6.282057E-002,6.282057E-002,6.282057E-002,6.282057E-002,6.282057E-002,6.282057E-002,
   **   ~~~   ** Air System Named = CENTRAL SYSTEM did not converge for energy
   **   ~~~   ** Check values should be zero. Most Recent values listed first.
   **   ~~~   ** Demand-to-Supply interface energy check value iteration history trace: 1234.074615,1234.074615,1234.074615,1234.074615,1234.074615,1234.074615,1234.074615,1234.074615,1234.074615,1234.074615,
   **   ~~~   ** Supply-to-demand interface deck 1 energy check value iteration history trace: 2166.269429,2166.269428,2166.269428,2166.269428,2166.269428,2166.269428,2166.269428,2166.269428,2166.269428,2166.269428,
   ** Warning ** SimHVAC: Maximum iterations (20) exceeded for all HVAC loops, at ANNUAL, 05/01 05:53 - 06:00
   **   ~~~   ** The solution for one or more of the Air Loop HVAC systems did not appear to converge
   **   ~~~   ** Air System Named = CENTRAL SYSTEM did not converge for mass flow rate
   **   ~~~   ** Check values should be zero. Most Recent values listed first.
   **   ~~~   ** Demand-to-Supply interface mass flow rate check value iteration history trace: 5.934147E-002,5.934147E-002,5.934147E-002,5.934147E-002,5.934147E-002,5.934147E-002,5.934147E-002,5.934147E-002,5.934147E-002,5.934147E-002,
   **   ~~~   ** Supply-to-demand interface deck 1 mass flow rate check value iteration history trace: 5.934147E-002,5.934147E-002,5.934147E-002,5.934147E-002,5.934147E-002,5.934147E-002,5.934147E-002,5.934147E-002,5.934147E-002,5.934147E-002,
   **   ~~~   ** Air System Named = CENTRAL SYSTEM did not converge for energy
   **   ~~~   ** Check values should be zero. Most Recent values listed first.
   **   ~~~   ** Demand-to-Supply interface energy check value iteration history trace: 1176.224219,1176.224219,1176.224219,1176.224219,1176.224219,1176.224219,1176.224219,1176.224219,1176.224219,1176.224219,
   **   ~~~   ** Supply-to-demand interface deck 1 energy check value iteration history trace: 2187.105169,2187.105169,2187.105169,2187.105169,2187.105169,2187.105169,2187.105169,2187.105169,2187.105169,2187.105169,
   ** Warning ** SimHVAC: Maximum iterations (20) exceeded for all HVAC loops, at ANNUAL, 05/18 07:24 - 07:27
   **   ~~~   ** The solution for one or more of the Air Loop HVAC systems did not appear to converge
   **   ~~~   ** Air System Named = CENTRAL SYSTEM did not converge for mass flow rate
   **   ~~~   ** Check values should be zero. Most Recent values listed first.
   **   ~~~   ** Demand-to-Supply interface mass flow rate check value iteration history trace: 0.212716,0.212716,0.212716,0.212716,0.212716,0.212716,0.212716,0.212716,0.212716,0.212716,
   **   ~~~   ** Supply-to-demand interface deck 1 mass flow rate check value iteration history trace: 0.212716,0.212716,0.212716,0.212716,0.212716,0.212716,0.212716,0.212716,0.212716,0.212716,
   **   ~~~   ** Air System Named = CENTRAL SYSTEM did not converge for energy
   **   ~~~   ** Check values should be zero. Most Recent values listed first.
   **   ~~~   ** Demand-to-Supply interface energy check value iteration history trace: 5083.405374,5083.405375,5083.405376,5083.405378,5083.405379,5083.405380,5083.405382,5083.405383,5083.405384,5083.405386,
   **   ~~~   ** Supply-to-demand interface deck 1 energy check value iteration history trace: 2439.149963,2439.149964,2439.149965,2439.149965,2439.149966,2439.149967,2439.149967,2439.149968,2439.149968,2439.149969,
   ** Warning ** SimHVAC: Maximum iterations (20) exceeded for all HVAC loops, at ANNUAL, 05/18 08:40 - 08:42
   **   ~~~   ** The solution for one or more of the Air Loop HVAC systems did not appear to converge
   **   ~~~   ** Air System Named = CENTRAL SYSTEM did not converge for mass flow rate
   **   ~~~   ** Check values should be zero. Most Recent values listed first.
   **   ~~~   ** Demand-to-Supply interface mass flow rate check value iteration history trace: 0.314614,0.314614,0.314614,0.314614,0.314614,0.314614,0.314614,0.314614,0.314614,0.314614,
   **   ~~~   ** Supply-to-demand interface deck 1 mass flow rate check value iteration history trace: 0.314614,0.314614,0.314614,0.314614,0.314614,0.314614,0.314614,0.314614,0.314614,0.314614,
   **   ~~~   ** Air System Named = CENTRAL SYSTEM did not converge for energy
   **   ~~~   ** Check values should be zero. Most Recent values listed first.
   **   ~~~   ** Demand-to-Supply interface energy check value iteration history trace: 7469.962978,7469.962980,7469.962982,7469.962984,7469.962986,7469.962988,7469.962990,7469.962992,7469.962994,7469.962996,
   **   ~~~   ** Supply-to-demand interface deck 1 energy check value iteration history trace: 3560.869665,3560.869666,3560.869667,3560.869667,3560.869668,3560.869669,3560.869670,3560.869671,3560.869672,3560.869673,
   ************* Simulation Error Summary *************
   ** Warning ** The following Report Variables were requested but not generated -- check.rdd file
   **   ~~~   ** Either the IDF did not contain these elements, the variable name is misspelled,
   **   ~~~   ** or the requested variable is an advanced output which requires Output : Diagnostics, DisplayAdvancedReportVariables;
   ************* Key=*, VarName=BASEBOARD TOTAL HEATING ENERGY, Frequency=
   ************* Key=*, VarName=WATER HEATER NATURALGAS ENERGY, Frequency=
   ************* Key=*, VarName=COOLING COIL TOTAL HEATING ENERGY, Frequency=
   ************* There are 34 unused schedules in input.
   ************* There are 388 unused week schedules in input.
   ************* There are 396 unused day schedules in input.
   ************* Use Output:Diagnostics,DisplayUnusedSchedules; to see them.
   *************
   ************* ===== Recurring Error Summary =====
   ************* The following recurring error messages occurred.
   *************
   *************  ** Warning ** "TOTAL HOT WATER LOAD" - Target water temperature should be less than or equal to the hot water temperature error continues...
   *************  **   ~~~   **   This error occurred 63321 total times;
   *************  **   ~~~   **   during Warmup 0 times;
   *************  **   ~~~   **   during Sizing 0 times.
   *************  **   ~~~   **   Max=6.649905  Min=1.253346E-004
   *************
   *************  ** Warning ** SimHVAC: Exceeding Maximum iterations for all HVAC loops, during ANNUAL continues
   *************  **   ~~~   **   This error occurred 4 total times;
   *************  **   ~~~   **   during Warmup 0 times;
   *************  **   ~~~   **   during Sizing 0 times.
   *************
   *************
   ************* ===== Final Error Summary =====
   ************* The following error categories occurred.  Consider correcting or noting.
   ************* Nominally Unused Constructions
   ************* ..The nominally unused constructions warning is provided to alert you to potential conditions that can cause
   ************* ..extra time during simulation. Each construction is calculated by the algorithm indicated in the HeatBalanceAlgorithm
   ************* ..object. You may remove the constructions indicated (when you use the DisplayExtraWarnings option).
   *************
   ************* EnergyPlus Warmup Error Summary. During Warmup: 1 Warning; 0 Severe Errors.
   ************* EnergyPlus Sizing Error Summary. During Sizing: 4 Warning; 0 Severe Errors.
   ************* EnergyPlus Completed Successfully-- 63357 Warning; 0 Severe Errors; Elapsed Time=00hr 01min 36.51sec
