Program Version,EnergyPlus, Version 22.2.0-c249759bad, YMD=2023.09.01 14:24,
   ************* Beginning Zone Sizing Calculations
   ** Warning ** ProcessScheduleInput: Schedule:Constant="ALWAYS ON DISCRETE", Schedule Type Limits Name="ONOFF" not found -- will not be validated
   ** Warning ** Foundation:Kiva="KIVA FOUNDATION", no Interior Horizontal Insulation Material Name defined
   **   ~~~   ** Interior Horizontal Insulation Depth will not be used.
   ** Warning ** CheckUsedConstructions: There are 15 nominally unused constructions in input.
   **   ~~~   ** Each Unused construction is shown.
   ************* Construction=INTERIOR FLOOR
   ************* Construction=INTERIOR WINDOW
   ************* Construction=EXTERIOR DOOR
   ************* Construction=INTERIOR DOOR
   ************* Construction=GABLE CONSTRUCTION
   ************* Construction=CRAWL_FLOOR
   ************* Construction=INSULATED PIPE
   ************* Construction=PLAIN PIPE
   ************* Construction=TDD PIPE
   ************* Construction=TDD DOME
   ************* Construction=TDD DIFFUSER
   ************* Construction=CRAWL WALL
   ************* Construction=CEILING-FLOOR-LAYER
   ************* Construction=SLAB CONSTRUCTION W FULL R10 INSULATION
   ************* Construction=SLAB CONSTRUCTION W FULL R5 INSULATION
   ** Warning ** GetDXCoils: Coil:Heating:DX:SingleSpeed="DX_HEATING_COIL" curve values
   **   ~~~   ** ... Defrost Energy Input Ratio Function of Temperature Curve Name = DEFROSTEIR output is not equal to 1.0 (+ or - 10%) at rated conditions.
   **   ~~~   ** ... Curve output at rated conditions = 0.152
   ** Severe  ** WaterHeater:HeatPump:WrappedCondenser="WATER HEATER":
   **   ~~~   ** The HPWH's air inlet node name = ZONE EXHAUST NODE was not properly specified 
   **   ~~~   ** as an exhaust air node for zone = CRAWLSPACE in a ZoneHVAC:EquipmentConnections object.
   ** Severe  ** WaterHeater:HeatPump:WrappedCondenser="WATER HEATER":
   **   ~~~   ** The HPWH's air outlet node name = HPWH ZONE INLET NODE was not properly specified 
   **   ~~~   ** as an inlet air node for zone = CRAWLSPACE in a ZoneHVAC:EquipmentConnections object.
   ** Severe  ** WaterHeater:HeatPump:WrappedCondenser = WATER HEATER:
   **   ~~~   ** Heat pump water heater type and name must be listed in the correct ZoneHVAC:EquipmentList object when Inlet Air Configuration is equal to ZoneAirOnly or ZoneAndOutdoorAir.
   ************* Beginning System Sizing Calculations
   ************* Beginning Plant Sizing Calculations
   ** Warning ** SizeDXCoil Coil:Cooling:DX:SingleSpeed DX_COOLING_COIL
   **   ~~~   ** ...Gross Rated Total Cooling Capacity [W] will be limited by the maximum rated volume flow per rated total capacity ratio.
   **   ~~~   ** ...DX coil volume flow rate ( m3/s ) = 0.554728
   **   ~~~   ** ...Requested capacity ( W ) = 7097.287
   **   ~~~   ** ...Requested flow/capacity ratio ( m3/s/W ) = 7.816E-005
   **   ~~~   ** ...Maximum flow/capacity ratio ( m3/s/W ) = 6.041E-005
   **   ~~~   ** ...Adjusted capacity ( W ) = 9182.728
   ** Warning ** SizeDXCoil Coil:Heating:DX:SingleSpeed DX_HEATING_COIL
   **   ~~~   ** ...Gross Rated Heating Capacity [W] will be limited by the maximum rated volume flow per rated total capacity ratio.
   **   ~~~   ** ...DX coil volume flow rate ( m3/s ) = 0.554728
   **   ~~~   ** ...Requested capacity ( W ) = 9182.728
   **   ~~~   ** ...Requested flow/capacity ratio ( m3/s/W ) = 6.041E-005
   **   ~~~   ** ...Maximum flow/capacity ratio ( m3/s/W ) = 6.041E-005
   **   ~~~   ** ...Adjusted capacity ( W ) = 9182.728
   ** Warning ** Coil:WaterHeating:AirToWaterHeatPump:Wrapped "HEAT PUMP WATER HEATER EVAPORATOR": Rated air volume flow rate per watt of rated total water heating capacity is out of range
   **   ~~~   ** Min Rated Vol Flow Per Watt=[4.027E-005], Rated Vol Flow Per Watt=[1.386E-004], Max Rated Vol Flow Per Watt=[8.056E-005]. See Input-Output Reference Manual for valid range.
   ** Warning ** Water heater = WATER HEATER TANK:  Recovery Efficiency and Energy Factor could not be calculated during the test for standard ratings
   **   ~~~   ** Setpoint was never recovered and/or heater never turned on
   ** Warning ** Check input. Pump nominal power or motor efficiency is set to 0, for pump=MAINS PRESSURE
   ** Warning ** Output:Meter: invalid Key Name="ELECTRIC_RANGE:INTERIOREQUIPMENT:ELECTRICITY" - not found.
   ** Warning ** Output:Meter: invalid Key Name="ELECTRIC_DRYER:INTERIOREQUIPMENT:ELECTRICITY" - not found.
   ** Warning ** Output:Meter: invalid Key Name="HEATRECOVERY:ELECTRICITY" - not found.
   ** Warning ** Output:Meter: invalid Key Name="HEATING:NATURALGAS" - not found.
   ** Warning ** Output:Meter: invalid Key Name="WATERSYSTEMS:NATURALGAS" - not found.
   ** Warning ** Output:Meter: invalid Key Name="PROPANE:FACILITY" - not found.
   ** Warning ** Output:Meter: invalid Key Name="HEATING:PROPANE" - not found.
   ************* Testing Individual Branch Integrity
   ************* All Branches passed integrity testing
   ************* Testing Individual Supply Air Path Integrity
   ************* All Supply Air Paths passed integrity testing
   ************* Testing Individual Return Air Path Integrity
   ************* All Return Air Paths passed integrity testing
   ************* No node connection errors were found.
   ************* Beginning Simulation
   ** Warning ** AirflowNetwork::Solver::validate_distribution: Heat pump water heater is simulated along with an AirflowNetwork but is not included in the AirflowNetwork.
   ** Warning ** CalcEquipmentFlowRates: "TOTAL HOT WATER LOAD" - Target water temperature is greater than the hot water temperature by (1.69 C)
   **   ~~~   **  Environment=EXTREME_WINTER, at Simulation time=12/22 06:00 - 06:15
   **   ~~~   ** ...target water temperature     = 53.33 C
   **   ~~~   ** ...hot water temperature        = 51.65 C
   **   ~~~   ** ...Target water temperature should be less than or equal to the hot water temperature. Verify temperature setpoints and schedules.
   ** Warning ** SimHVAC: Maximum iterations (20) exceeded for all HVAC loops, at ANNUAL, 02/01 15:08 - 15:15
   **   ~~~   ** The solution for one or more of the Air Loop HVAC systems did not appear to converge
   **   ~~~   ** Air System Named = CENTRAL SYSTEM did not converge for mass flow rate
   **   ~~~   ** Check values should be zero. Most Recent values listed first.
   **   ~~~   ** Demand-to-Supply interface mass flow rate check value iteration history trace: 5.553753E-002,5.553753E-002,5.553753E-002,5.553753E-002,5.553753E-002,5.553753E-002,5.553753E-002,5.553753E-002,5.553753E-002,5.553753E-002,
   **   ~~~   ** Supply-to-demand interface deck 1 mass flow rate check value iteration history trace: 5.553753E-002,5.553753E-002,5.553753E-002,5.553753E-002,5.553753E-002,5.553753E-002,5.553753E-002,5.553753E-002,5.553753E-002,5.553753E-002,
   **   ~~~   ** Air System Named = CENTRAL SYSTEM did not converge for energy
   **   ~~~   ** Check values should be zero. Most Recent values listed first.
   **   ~~~   ** Demand-to-Supply interface energy check value iteration history trace: 1086.414121,1086.414121,1086.414121,1086.414121,1086.414121,1086.414121,1086.414121,1086.414121,1086.414121,1086.414121,
   **   ~~~   ** Supply-to-demand interface deck 1 energy check value iteration history trace: 2013.768660,2013.768660,2013.768660,2013.768660,2013.768660,2013.768660,2013.768660,2013.768660,2013.768659,2013.768659,
   ** Warning ** SimHVAC: Maximum iterations (20) exceeded for all HVAC loops, at ANNUAL, 02/21 20:08 - 20:15
   **   ~~~   ** The solution for one or more of the Air Loop HVAC systems did not appear to converge
   **   ~~~   ** Air System Named = CENTRAL SYSTEM did not converge for mass flow rate
   **   ~~~   ** Check values should be zero. Most Recent values listed first.
   **   ~~~   ** Demand-to-Supply interface mass flow rate check value iteration history trace: 9.591550E-002,9.591550E-002,9.591550E-002,9.591550E-002,9.591550E-002,9.591550E-002,9.591550E-002,9.591550E-002,9.591550E-002,9.591550E-002,
   **   ~~~   ** Supply-to-demand interface deck 1 mass flow rate check value iteration history trace: 9.591550E-002,9.591550E-002,9.591550E-002,9.591550E-002,9.591550E-002,9.591550E-002,9.591550E-002,9.591550E-002,9.591550E-002,9.591550E-002,
   **   ~~~   ** Air System Named = CENTRAL SYSTEM did not converge for energy
   **   ~~~   ** Check values should be zero. Most Recent values listed first.
   **   ~~~   ** Demand-to-Supply interface energy check value iteration history trace: 1870.888550,1870.888550,1870.888549,1870.888549,1870.888549,1870.888549,1870.888549,1870.888549,1870.888549,1870.888549,
   **   ~~~   ** Supply-to-demand interface deck 1 energy check value iteration history trace: 3002.721476,3002.721476,3002.721475,3002.721475,3002.721475,3002.721475,3002.721475,3002.721475,3002.721474,3002.721474,
   ** Warning ** Temperature out of range [-100. to 200.] (PsyPsatFnTemp)
   **   ~~~   **  Routine=PsyTwbFnTdbWPb, Environment=ANNUAL, at Simulation time=02/27 09:45 - 09:48
   **   ~~~   **  Input Temperature=-100.09
   ** Warning ** SimHVAC: Maximum iterations (20) exceeded for all HVAC loops, at ANNUAL, 03/03 07:30 - 07:34
   **   ~~~   ** The solution for one or more of the Air Loop HVAC systems did not appear to converge
   **   ~~~   ** Air System Named = CENTRAL SYSTEM did not converge for mass flow rate
   **   ~~~   ** Check values should be zero. Most Recent values listed first.
   **   ~~~   ** Demand-to-Supply interface mass flow rate check value iteration history trace: 5.288786E-002,5.288786E-002,5.288786E-002,5.288786E-002,5.288786E-002,5.288786E-002,5.288786E-002,5.288786E-002,5.288786E-002,5.288786E-002,
   **   ~~~   ** Supply-to-demand interface deck 1 mass flow rate check value iteration history trace: 5.288786E-002,5.288786E-002,5.288786E-002,5.288786E-002,5.288786E-002,5.288786E-002,5.288786E-002,5.288786E-002,5.288786E-002,5.288786E-002,
   **   ~~~   ** Air System Named = CENTRAL SYSTEM did not converge for energy
   **   ~~~   ** Check values should be zero. Most Recent values listed first.
   **   ~~~   ** Demand-to-Supply interface energy check value iteration history trace: 1048.057428,1048.057428,1048.057428,1048.057428,1048.057428,1048.057428,1048.057428,1048.057428,1048.057428,1048.057428,
   **   ~~~   ** Supply-to-demand interface deck 1 energy check value iteration history trace: 2068.683483,2068.683483,2068.683482,2068.683482,2068.683482,2068.683482,2068.683482,2068.683482,2068.683482,2068.683482,
   ** Warning ** SimHVAC: Maximum iterations (20) exceeded for all HVAC loops, at ANNUAL, 03/19 09:13 - 09:15
   **   ~~~   ** The solution for one or more of the Air Loop HVAC systems did not appear to converge
   **   ~~~   ** Air System Named = CENTRAL SYSTEM did not converge for mass flow rate
   **   ~~~   ** Check values should be zero. Most Recent values listed first.
   **   ~~~   ** Demand-to-Supply interface mass flow rate check value iteration history trace: 7.479066E-002,7.479066E-002,7.479066E-002,7.479066E-002,7.479066E-002,7.479066E-002,7.479066E-002,7.479066E-002,7.479066E-002,7.479066E-002,
   **   ~~~   ** Supply-to-demand interface deck 1 mass flow rate check value iteration history trace: 7.479066E-002,7.479066E-002,7.479066E-002,7.479066E-002,7.479066E-002,7.479066E-002,7.479066E-002,7.479066E-002,7.479066E-002,7.479066E-002,
   **   ~~~   ** Air System Named = CENTRAL SYSTEM did not converge for energy
   **   ~~~   ** Check values should be zero. Most Recent values listed first.
   **   ~~~   ** Demand-to-Supply interface energy check value iteration history trace: 1478.745270,1478.745270,1478.745270,1478.745270,1478.745270,1478.745270,1478.745270,1478.745270,1478.745269,1478.745269,
   **   ~~~   ** Supply-to-demand interface deck 1 energy check value iteration history trace: 2738.867216,2738.867216,2738.867215,2738.867215,2738.867215,2738.867215,2738.867215,2738.867215,2738.867215,2738.867215,
   ** Warning ** SimHVAC: Maximum iterations (20) exceeded for all HVAC loops, at ANNUAL, 05/04 07:36 - 07:39
   **   ~~~   ** The solution for one or more of the Air Loop HVAC systems did not appear to converge
   **   ~~~   ** Air System Named = CENTRAL SYSTEM did not converge for mass flow rate
   **   ~~~   ** Check values should be zero. Most Recent values listed first.
   **   ~~~   ** Demand-to-Supply interface mass flow rate check value iteration history trace: 5.796823E-002,5.796823E-002,5.796823E-002,5.796823E-002,5.796823E-002,5.796823E-002,5.796823E-002,5.796823E-002,5.796823E-002,5.796823E-002,
   **   ~~~   ** Supply-to-demand interface deck 1 mass flow rate check value iteration history trace: 5.796823E-002,5.796823E-002,5.796823E-002,5.796823E-002,5.796823E-002,5.796823E-002,5.796823E-002,5.796823E-002,5.796823E-002,5.796823E-002,
   **   ~~~   ** Air System Named = CENTRAL SYSTEM did not converge for energy
   **   ~~~   ** Check values should be zero. Most Recent values listed first.
   **   ~~~   ** Demand-to-Supply interface energy check value iteration history trace: 1145.466807,1145.466807,1145.466807,1145.466806,1145.466806,1145.466806,1145.466806,1145.466806,1145.466806,1145.466806,
   **   ~~~   ** Supply-to-demand interface deck 1 energy check value iteration history trace: 2180.792174,2180.792174,2180.792174,2180.792174,2180.792174,2180.792174,2180.792174,2180.792173,2180.792173,2180.792173,
   ** Warning ** SimHVAC: Maximum iterations (20) exceeded for all HVAC loops, at ANNUAL, 05/09 07:45 - 08:00
   **   ~~~   ** The solution for one or more of the Air Loop HVAC systems did not appear to converge
   **   ~~~   ** Air System Named = CENTRAL SYSTEM did not converge for mass flow rate
   **   ~~~   ** Check values should be zero. Most Recent values listed first.
   **   ~~~   ** Demand-to-Supply interface mass flow rate check value iteration history trace: 6.503333E-002,6.503333E-002,6.503333E-002,6.503333E-002,6.503333E-002,6.503333E-002,6.503333E-002,6.503333E-002,6.503333E-002,6.503333E-002,
   **   ~~~   ** Supply-to-demand interface deck 1 mass flow rate check value iteration history trace: 6.503333E-002,6.503333E-002,6.503333E-002,6.503333E-002,6.503333E-002,6.503333E-002,6.503333E-002,6.503333E-002,6.503333E-002,6.503333E-002,
   **   ~~~   ** Air System Named = CENTRAL SYSTEM did not converge for energy
   **   ~~~   ** Check values should be zero. Most Recent values listed first.
   **   ~~~   ** Demand-to-Supply interface energy check value iteration history trace: 1288.711418,1288.711418,1288.711418,1288.711418,1288.711418,1288.711418,1288.711417,1288.711417,1288.711417,1288.711417,
   **   ~~~   ** Supply-to-demand interface deck 1 energy check value iteration history trace: 2442.653671,2442.653671,2442.653671,2442.653671,2442.653671,2442.653671,2442.653670,2442.653670,2442.653670,2442.653670,
   ** Warning ** SimHVAC: Maximum iterations (20) exceeded for all HVAC loops, at ANNUAL, 05/19 07:24 - 07:27
   **   ~~~   ** The solution for one or more of the Air Loop HVAC systems did not appear to converge
   **   ~~~   ** Air System Named = CENTRAL SYSTEM did not converge for mass flow rate
   **   ~~~   ** Check values should be zero. Most Recent values listed first.
   **   ~~~   ** Demand-to-Supply interface mass flow rate check value iteration history trace: 0.111509,0.111509,0.111509,0.111509,0.111509,0.111509,0.111509,0.111509,0.111509,0.111509,
   **   ~~~   ** Supply-to-demand interface deck 1 mass flow rate check value iteration history trace: 0.111509,0.111509,0.111509,0.111509,0.111509,0.111509,0.111509,0.111509,0.111509,0.111509,
   **   ~~~   ** Air System Named = CENTRAL SYSTEM did not converge for energy
   **   ~~~   ** Check values should be zero. Most Recent values listed first.
   **   ~~~   ** Demand-to-Supply interface energy check value iteration history trace: 2639.464161,2639.464161,2639.464161,2639.464162,2639.464162,2639.464162,2639.464163,2639.464163,2639.464163,2639.464163,
   **   ~~~   ** Supply-to-demand interface deck 1 energy check value iteration history trace: 990.796178,990.796178,990.796178,990.796178,990.796178,990.796178,990.796179,990.796179,990.796179,990.796179,
   ** Warning ** SimHVAC: Maximum iterations (20) exceeded for all HVAC loops, at ANNUAL, 05/30 06:51 - 06:54
   **   ~~~   ** The solution for one or more of the Air Loop HVAC systems did not appear to converge
   **   ~~~   ** Air System Named = CENTRAL SYSTEM did not converge for mass flow rate
   **   ~~~   ** Check values should be zero. Most Recent values listed first.
   **   ~~~   ** Demand-to-Supply interface mass flow rate check value iteration history trace: 0.320625,0.320625,0.320625,0.320625,0.320625,0.320625,0.320625,0.320625,0.320625,0.320625,
   **   ~~~   ** Supply-to-demand interface deck 1 mass flow rate check value iteration history trace: 0.320625,0.320625,0.320625,0.320625,0.320625,0.320625,0.320625,0.320625,0.320625,0.320625,
   **   ~~~   ** Air System Named = CENTRAL SYSTEM did not converge for energy
   **   ~~~   ** Check values should be zero. Most Recent values listed first.
   **   ~~~   ** Demand-to-Supply interface energy check value iteration history trace: 7708.884875,7708.884877,7708.884878,7708.884879,7708.884880,7708.884881,7708.884882,7708.884883,7708.884884,7708.884885,
   **   ~~~   ** Supply-to-demand interface deck 1 energy check value iteration history trace: 3141.524137,3141.524138,3141.524138,3141.524139,3141.524139,3141.524140,3141.524140,3141.524140,3141.524141,3141.524141,
   ** Warning ** SimHVAC: Maximum iterations (20) exceeded for all HVAC loops, at ANNUAL, 05/30 07:48 - 07:50
   **   ~~~   ** The solution for one or more of the Air Loop HVAC systems did not appear to converge
   **   ~~~   ** Air System Named = CENTRAL SYSTEM did not converge for mass flow rate
   **   ~~~   ** Check values should be zero. Most Recent values listed first.
   **   ~~~   ** Demand-to-Supply interface mass flow rate check value iteration history trace: 0.182473,0.182473,0.182473,0.182473,0.182473,0.182473,0.182473,0.182473,0.182473,0.182473,
   **   ~~~   ** Supply-to-demand interface deck 1 mass flow rate check value iteration history trace: 0.182473,0.182473,0.182473,0.182473,0.182473,0.182473,0.182473,0.182473,0.182473,0.182473,
   **   ~~~   ** Air System Named = CENTRAL SYSTEM did not converge for energy
   **   ~~~   ** Check values should be zero. Most Recent values listed first.
   **   ~~~   ** Demand-to-Supply interface energy check value iteration history trace: 4344.631476,4344.631477,4344.631477,4344.631478,4344.631479,4344.631479,4344.631480,4344.631480,4344.631481,4344.631481,
   **   ~~~   ** Supply-to-demand interface deck 1 energy check value iteration history trace: 1784.325991,1784.325991,1784.325991,1784.325991,1784.325992,1784.325992,1784.325992,1784.325992,1784.325993,1784.325993,
   ** Warning ** SimHVAC: Maximum iterations (20) exceeded for all HVAC loops, at ANNUAL, 05/30 08:12 - 08:15
   **   ~~~   ** The solution for one or more of the Air Loop HVAC systems did not appear to converge
   **   ~~~   ** Air System Named = CENTRAL SYSTEM did not converge for mass flow rate
   **   ~~~   ** Check values should be zero. Most Recent values listed first.
   **   ~~~   ** Demand-to-Supply interface mass flow rate check value iteration history trace: 0.153629,0.153629,0.153629,0.153629,0.153629,0.153629,0.153629,0.153629,0.153629,0.153629,
   **   ~~~   ** Supply-to-demand interface deck 1 mass flow rate check value iteration history trace: 0.153629,0.153629,0.153629,0.153629,0.153629,0.153629,0.153629,0.153629,0.153629,0.153629,
   **   ~~~   ** Air System Named = CENTRAL SYSTEM did not converge for energy
   **   ~~~   ** Check values should be zero. Most Recent values listed first.
   **   ~~~   ** Demand-to-Supply interface energy check value iteration history trace: 3655.238708,3655.238708,3655.238709,3655.238709,3655.238709,3655.238710,3655.238710,3655.238711,3655.238711,3655.238712,
   **   ~~~   ** Supply-to-demand interface deck 1 energy check value iteration history trace: 1495.983704,1495.983704,1495.983705,1495.983705,1495.983705,1495.983705,1495.983705,1495.983706,1495.983706,1495.983706,
   ** Warning ** SimHVAC: Maximum iterations (20) exceeded for all HVAC loops, at ANNUAL, 06/14 07:18 - 07:21
   **   ~~~   ** The solution for one or more of the Air Loop HVAC systems did not appear to converge
   **   ~~~   ** Air System Named = CENTRAL SYSTEM did not converge for mass flow rate
   **   ~~~   ** Check values should be zero. Most Recent values listed first.
   **   ~~~   ** Demand-to-Supply interface mass flow rate check value iteration history trace: 5.270501E-002,5.270501E-002,5.270501E-002,5.270501E-002,5.270501E-002,5.270501E-002,5.270501E-002,5.270501E-002,5.270501E-002,5.270501E-002,
   **   ~~~   ** Supply-to-demand interface deck 1 mass flow rate check value iteration history trace: 5.270501E-002,5.270501E-002,5.270501E-002,5.270501E-002,5.270501E-002,5.270501E-002,5.270501E-002,5.270501E-002,5.270501E-002,5.270501E-002,
   **   ~~~   ** Air System Named = CENTRAL SYSTEM did not converge for energy
   **   ~~~   ** Check values should be zero. Most Recent values listed first.
   **   ~~~   ** Demand-to-Supply interface energy check value iteration history trace: 1039.755096,1039.755096,1039.755096,1039.755096,1039.755096,1039.755096,1039.755096,1039.755096,1039.755096,1039.755096,
   **   ~~~   ** Supply-to-demand interface deck 1 energy check value iteration history trace: 1994.343630,1994.343630,1994.343630,1994.343630,1994.343630,1994.343630,1994.343630,1994.343630,1994.343630,1994.343629,
