Program Version,EnergyPlus, Version 22.2.0-c249759bad, YMD=2023.09.01 19:00,
   ************* Beginning Zone Sizing Calculations
   ** Warning ** ProcessScheduleInput: Schedule:Constant="ALWAYS ON DISCRETE", Schedule Type Limits Name="ONOFF" not found -- will not be validated
   ** Warning ** Foundation:Kiva="KIVA FOUNDATION", no Interior Horizontal Insulation Material Name defined
   **   ~~~   ** Interior Horizontal Insulation Depth will not be used.
   ** Warning ** CheckUsedConstructions: There are 15 nominally unused constructions in input.
   **   ~~~   ** Each Unused construction is shown.
   ************* Construction=INTERIOR FLOOR
   ************* Construction=INTERIOR WINDOW
   ************* Construction=EXTERIOR DOOR
   ************* Construction=INTERIOR DOOR
   ************* Construction=GABLE CONSTRUCTION
   ************* Construction=CRAWL_FLOOR
   ************* Construction=INSULATED PIPE
   ************* Construction=PLAIN PIPE
   ************* Construction=TDD PIPE
   ************* Construction=TDD DOME
   ************* Construction=TDD DIFFUSER
   ************* Construction=CRAWL WALL
   ************* Construction=CEILING-FLOOR-LAYER
   ************* Construction=SLAB CONSTRUCTION W FULL R10 INSULATION
   ************* Construction=SLAB CONSTRUCTION W FULL R5 INSULATION
   ** Warning ** GetDXCoils: Coil:Heating:DX:SingleSpeed="DX_HEATING_COIL" curve values
   **   ~~~   ** ... Defrost Energy Input Ratio Function of Temperature Curve Name = DEFROSTEIR output is not equal to 1.0 (+ or - 10%) at rated conditions.
   **   ~~~   ** ... Curve output at rated conditions = 0.152
   ************* Beginning System Sizing Calculations
   ************* Beginning Plant Sizing Calculations
   ** Warning ** SizeDXCoil Coil:Cooling:DX:SingleSpeed DX_COOLING_COIL
   **   ~~~   ** ...Gross Rated Total Cooling Capacity [W] will be limited by the maximum rated volume flow per rated total capacity ratio.
   **   ~~~   ** ...DX coil volume flow rate ( m3/s ) = 0.348748
   **   ~~~   ** ...Requested capacity ( W ) = 5219.942
   **   ~~~   ** ...Requested flow/capacity ratio ( m3/s/W ) = 6.681E-005
   **   ~~~   ** ...Maximum flow/capacity ratio ( m3/s/W ) = 6.041E-005
   **   ~~~   ** ...Adjusted capacity ( W ) = 5773.021
   ** Warning ** Coil:WaterHeating:AirToWaterHeatPump:Wrapped "HEAT PUMP WATER HEATER EVAPORATOR": Rated air volume flow rate per watt of rated total water heating capacity is out of range
   **   ~~~   ** Min Rated Vol Flow Per Watt=[4.027E-005], Rated Vol Flow Per Watt=[1.510E-004], Max Rated Vol Flow Per Watt=[8.056E-005]. See Input-Output Reference Manual for valid range.
   ************* SizeFan: : Potential issue with equipment sizing for Fan:OnOff HEAT PUMP WATER HEATER FAN
   **   ~~~   ** User-Specified Maximum Flow Rate [m3/s] = 0.22653
   **   ~~~   ** differs from Design Size Maximum Flow Rate [m3/s] = 7.55250E-002
   **   ~~~   ** This may, or may not, indicate mismatched component sizes.
   **   ~~~   ** Verify that the value entered is intended and is consistent with other components.
   ** Warning ** Water heater = WATER HEATER TANK:  Recovery Efficiency and Energy Factor could not be calculated during the test for standard ratings
   **   ~~~   ** Setpoint was never recovered and/or heater never turned on
   ** Warning ** Check input. Pump nominal power or motor efficiency is set to 0, for pump=MAINS PRESSURE
   ** Warning ** Output:Meter: invalid Key Name="ELECTRIC_RANGE:INTERIOREQUIPMENT:ELECTRICITY" - not found.
   ** Warning ** Output:Meter: invalid Key Name="ELECTRIC_DRYER:INTERIOREQUIPMENT:ELECTRICITY" - not found.
   ** Warning ** Output:Meter: invalid Key Name="HEATRECOVERY:ELECTRICITY" - not found.
   ** Warning ** Output:Meter: invalid Key Name="HEATING:NATURALGAS" - not found.
   ** Warning ** Output:Meter: invalid Key Name="WATERSYSTEMS:NATURALGAS" - not found.
   ** Warning ** Output:Meter: invalid Key Name="PROPANE:FACILITY" - not found.
   ** Warning ** Output:Meter: invalid Key Name="HEATING:PROPANE" - not found.
   ************* Testing Individual Branch Integrity
   ************* All Branches passed integrity testing
   ************* Testing Individual Supply Air Path Integrity
   ************* All Supply Air Paths passed integrity testing
   ************* Testing Individual Return Air Path Integrity
   ************* All Return Air Paths passed integrity testing
   ************* No node connection errors were found.
   ************* Beginning Simulation
   ** Warning ** AirflowNetwork::Solver::validate_distribution: Heat pump water heater is simulated along with an AirflowNetwork but is not included in the AirflowNetwork.
   ** Warning ** CalcEquipmentFlowRates: "TOTAL HOT WATER LOAD" - Target water temperature is greater than the hot water temperature by (1.83 C)
   **   ~~~   **  Environment=EXTREME_WINTER, at Simulation time=12/15 03:45 - 04:00
   **   ~~~   ** ...target water temperature     = 53.33 C
   **   ~~~   ** ...hot water temperature        = 51.51 C
   **   ~~~   ** ...Target water temperature should be less than or equal to the hot water temperature. Verify temperature setpoints and schedules.
   ** Warning ** SimHVAC: Maximum iterations (20) exceeded for all HVAC loops, at ANNUAL, 03/15 22:04 - 22:08
   **   ~~~   ** The solution for one or more of the Air Loop HVAC systems did not appear to converge
   **   ~~~   ** Air System Named = CENTRAL SYSTEM did not converge for mass flow rate
   **   ~~~   ** Check values should be zero. Most Recent values listed first.
   **   ~~~   ** Demand-to-Supply interface mass flow rate check value iteration history trace: 7.345689E-002,7.345689E-002,7.345689E-002,7.345689E-002,7.345689E-002,7.345689E-002,7.345689E-002,7.345689E-002,7.345689E-002,7.345689E-002,
   **   ~~~   ** Supply-to-demand interface deck 1 mass flow rate check value iteration history trace: 7.345689E-002,7.345689E-002,7.345689E-002,7.345689E-002,7.345689E-002,7.345689E-002,7.345689E-002,7.345689E-002,7.345689E-002,7.345689E-002,
   **   ~~~   ** Air System Named = CENTRAL SYSTEM did not converge for energy
   **   ~~~   ** Check values should be zero. Most Recent values listed first.
   **   ~~~   ** Demand-to-Supply interface energy check value iteration history trace: 1416.640021,1416.640021,1416.640020,1416.640020,1416.640020,1416.640020,1416.640020,1416.640020,1416.640020,1416.640020,
   **   ~~~   ** Supply-to-demand interface deck 1 energy check value iteration history trace: 2120.402438,2120.402438,2120.402437,2120.402437,2120.402437,2120.402437,2120.402437,2120.402437,2120.402437,2120.402436,
   ** Warning ** SimHVAC: Maximum iterations (20) exceeded for all HVAC loops, at ANNUAL, 03/29 10:00 - 10:15
   **   ~~~   ** The solution for one or more of the Air Loop HVAC systems did not appear to converge
   **   ~~~   ** Air System Named = CENTRAL SYSTEM did not converge for mass flow rate
   **   ~~~   ** Check values should be zero. Most Recent values listed first.
   **   ~~~   ** Demand-to-Supply interface mass flow rate check value iteration history trace: 6.686528E-002,6.686528E-002,6.686528E-002,6.686528E-002,6.686528E-002,6.686528E-002,6.686528E-002,6.686528E-002,6.686528E-002,6.686528E-002,
   **   ~~~   ** Supply-to-demand interface deck 1 mass flow rate check value iteration history trace: 6.686528E-002,6.686528E-002,6.686528E-002,6.686528E-002,6.686528E-002,6.686528E-002,6.686528E-002,6.686528E-002,6.686528E-002,6.686528E-002,
   **   ~~~   ** Air System Named = CENTRAL SYSTEM did not converge for energy
   **   ~~~   ** Check values should be zero. Most Recent values listed first.
   **   ~~~   ** Demand-to-Supply interface energy check value iteration history trace: 1325.045106,1325.045106,1325.045106,1325.045106,1325.045106,1325.045106,1325.045106,1325.045106,1325.045105,1325.045105,
   **   ~~~   ** Supply-to-demand interface deck 1 energy check value iteration history trace: 2125.069960,2125.069960,2125.069960,2125.069960,2125.069960,2125.069960,2125.069959,2125.069959,2125.069959,2125.069959,
   ** Warning ** SimHVAC: Maximum iterations (20) exceeded for all HVAC loops, at ANNUAL, 04/26 08:30 - 08:34
   **   ~~~   ** The solution for one or more of the Air Loop HVAC systems did not appear to converge
   **   ~~~   ** Air System Named = CENTRAL SYSTEM did not converge for mass flow rate
   **   ~~~   ** Check values should be zero. Most Recent values listed first.
   **   ~~~   ** Demand-to-Supply interface mass flow rate check value iteration history trace: 6.727798E-002,6.727798E-002,6.727798E-002,6.727798E-002,6.727798E-002,6.727798E-002,6.727798E-002,6.727798E-002,6.727798E-002,6.727798E-002,
   **   ~~~   ** Supply-to-demand interface deck 1 mass flow rate check value iteration history trace: 6.727798E-002,6.727798E-002,6.727798E-002,6.727798E-002,6.727798E-002,6.727798E-002,6.727798E-002,6.727798E-002,6.727798E-002,6.727798E-002,
   **   ~~~   ** Air System Named = CENTRAL SYSTEM did not converge for energy
   **   ~~~   ** Check values should be zero. Most Recent values listed first.
   **   ~~~   ** Demand-to-Supply interface energy check value iteration history trace: 1333.198938,1333.198938,1333.198938,1333.198938,1333.198938,1333.198938,1333.198938,1333.198938,1333.198938,1333.198938,
   **   ~~~   ** Supply-to-demand interface deck 1 energy check value iteration history trace: 2363.944099,2363.944099,2363.944099,2363.944099,2363.944099,2363.944099,2363.944099,2363.944099,2363.944098,2363.944098,
   ** Warning ** SimHVAC: Maximum iterations (20) exceeded for all HVAC loops, at ANNUAL, 04/28 01:15 - 01:30
   **   ~~~   ** The solution for one or more of the Air Loop HVAC systems did not appear to converge
   **   ~~~   ** Air System Named = CENTRAL SYSTEM did not converge for mass flow rate
   **   ~~~   ** Check values should be zero. Most Recent values listed first.
   **   ~~~   ** Demand-to-Supply interface mass flow rate check value iteration history trace: 7.475092E-002,7.475092E-002,7.475092E-002,7.475092E-002,7.475092E-002,7.475092E-002,7.475092E-002,7.475092E-002,7.475092E-002,7.475092E-002,
   **   ~~~   ** Supply-to-demand interface deck 1 mass flow rate check value iteration history trace: 7.475092E-002,7.475092E-002,7.475092E-002,7.475092E-002,7.475092E-002,7.475092E-002,7.475092E-002,7.475092E-002,7.475092E-002,7.475092E-002,
   **   ~~~   ** Air System Named = CENTRAL SYSTEM did not converge for energy
   **   ~~~   ** Check values should be zero. Most Recent values listed first.
   **   ~~~   ** Demand-to-Supply interface energy check value iteration history trace: 1396.289834,1396.289834,1396.289834,1396.289834,1396.289834,1396.289834,1396.289834,1396.289834,1396.289834,1396.289834,
   **   ~~~   ** Supply-to-demand interface deck 1 energy check value iteration history trace: 2183.371341,2183.371341,2183.371341,2183.371340,2183.371340,2183.371340,2183.371340,2183.371340,2183.371340,2183.371340,
   ** Warning ** SimHVAC: Maximum iterations (20) exceeded for all HVAC loops, at ANNUAL, 05/15 07:00 - 07:15
   **   ~~~   ** The solution for one or more of the Air Loop HVAC systems did not appear to converge
   **   ~~~   ** Air System Named = CENTRAL SYSTEM did not converge for mass flow rate
   **   ~~~   ** Check values should be zero. Most Recent values listed first.
   **   ~~~   ** Demand-to-Supply interface mass flow rate check value iteration history trace: 6.445783E-002,6.445783E-002,6.445783E-002,6.445783E-002,6.445783E-002,6.445783E-002,6.445783E-002,6.445783E-002,6.445783E-002,6.445783E-002,
   **   ~~~   ** Supply-to-demand interface deck 1 mass flow rate check value iteration history trace: 6.445783E-002,6.445783E-002,6.445783E-002,6.445783E-002,6.445783E-002,6.445783E-002,6.445783E-002,6.445783E-002,6.445783E-002,6.445783E-002,
   **   ~~~   ** Air System Named = CENTRAL SYSTEM did not converge for energy
   **   ~~~   ** Check values should be zero. Most Recent values listed first.
   **   ~~~   ** Demand-to-Supply interface energy check value iteration history trace: 1274.878303,1274.878303,1274.878303,1274.878303,1274.878303,1274.878303,1274.878303,1274.878303,1274.878303,1274.878303,
   **   ~~~   ** Supply-to-demand interface deck 1 energy check value iteration history trace: 2268.367209,2268.367209,2268.367209,2268.367209,2268.367208,2268.367208,2268.367208,2268.367208,2268.367208,2268.367208,
   ** Warning ** SimHVAC: Maximum iterations (20) exceeded for all HVAC loops, at ANNUAL, 05/16 07:00 - 07:15
   **   ~~~   ** The solution for one or more of the Air Loop HVAC systems did not appear to converge
   **   ~~~   ** Air System Named = CENTRAL SYSTEM did not converge for mass flow rate
   **   ~~~   ** Check values should be zero. Most Recent values listed first.
   **   ~~~   ** Demand-to-Supply interface mass flow rate check value iteration history trace: 6.199977E-002,6.199977E-002,6.199977E-002,6.199977E-002,6.199977E-002,6.199977E-002,6.199977E-002,6.199977E-002,6.199977E-002,6.199977E-002,
   **   ~~~   ** Supply-to-demand interface deck 1 mass flow rate check value iteration history trace: 6.199977E-002,6.199977E-002,6.199977E-002,6.199977E-002,6.199977E-002,6.199977E-002,6.199977E-002,6.199977E-002,6.199977E-002,6.199977E-002,
   **   ~~~   ** Air System Named = CENTRAL SYSTEM did not converge for energy
   **   ~~~   ** Check values should be zero. Most Recent values listed first.
   **   ~~~   ** Demand-to-Supply interface energy check value iteration history trace: 1228.592965,1228.592965,1228.592965,1228.592965,1228.592965,1228.592964,1228.592964,1228.592964,1228.592964,1228.592964,
   **   ~~~   ** Supply-to-demand interface deck 1 energy check value iteration history trace: 2151.743854,2151.743854,2151.743854,2151.743854,2151.743854,2151.743854,2151.743854,2151.743854,2151.743854,2151.743854,
   ** Warning ** SimHVAC: Maximum iterations (20) exceeded for all HVAC loops, at ANNUAL, 06/18 08:06 - 08:09
   **   ~~~   ** The solution for one or more of the Air Loop HVAC systems did not appear to converge
   **   ~~~   ** Air System Named = CENTRAL SYSTEM did not converge for energy
   **   ~~~   ** Check values should be zero. Most Recent values listed first.
   **   ~~~   ** Demand-to-Supply interface energy check value iteration history trace: 104.243192,104.243192,104.243192,104.243192,104.243192,104.243192,104.243192,104.243192,104.243192,104.243192,
   **   ~~~   ** Supply-to-demand interface deck 1 energy check value iteration history trace: 51.186166,51.186166,51.186166,51.186166,51.186166,51.186166,51.186166,51.186166,51.186166,51.186166,
   ** Warning ** SimHVAC: Maximum iterations (20) exceeded for all HVAC loops, at ANNUAL, 09/14 21:38 - 21:45
   **   ~~~   ** The solution for one or more of the Air Loop HVAC systems did not appear to converge
   **   ~~~   ** Air System Named = CENTRAL SYSTEM did not converge for mass flow rate
   **   ~~~   ** Check values should be zero. Most Recent values listed first.
   **   ~~~   ** Demand-to-Supply interface mass flow rate check value iteration history trace: 0.161150,0.161150,0.161150,0.161150,0.161150,0.161150,0.161150,0.161150,0.161150,0.161150,
   **   ~~~   ** Supply-to-demand interface deck 1 mass flow rate check value iteration history trace: 0.161150,0.161150,0.161150,0.161150,0.161150,0.161150,0.161150,0.161150,0.161150,0.161150,
   **   ~~~   ** Air System Named = CENTRAL SYSTEM did not converge for energy
   **   ~~~   ** Check values should be zero. Most Recent values listed first.
   **   ~~~   ** Demand-to-Supply interface energy check value iteration history trace: 3882.471609,3882.471609,3882.471610,3882.471610,3882.471610,3882.471610,3882.471610,3882.471611,3882.471611,3882.471611,
   **   ~~~   ** Supply-to-demand interface deck 1 energy check value iteration history trace: 1552.940755,1552.940755,1552.940756,1552.940756,1552.940756,1552.940756,1552.940756,1552.940756,1552.940756,1552.940756,
   ** Warning ** SimHVAC: Maximum iterations (20) exceeded for all HVAC loops, at ANNUAL, 09/16 19:53 - 20:00
   **   ~~~   ** The solution for one or more of the Air Loop HVAC systems did not appear to converge
   **   ~~~   ** Air System Named = CENTRAL SYSTEM did not converge for mass flow rate
   **   ~~~   ** Check values should be zero. Most Recent values listed first.
   **   ~~~   ** Demand-to-Supply interface mass flow rate check value iteration history trace: 9.681600E-002,9.681600E-002,9.681600E-002,9.681600E-002,9.681600E-002,9.681600E-002,9.681600E-002,9.681600E-002,9.681600E-002,9.681600E-002,
   **   ~~~   ** Supply-to-demand interface deck 1 mass flow rate check value iteration history trace: 9.681600E-002,9.681600E-002,9.681600E-002,9.681600E-002,9.681600E-002,9.681600E-002,9.681600E-002,9.681600E-002,9.681600E-002,9.681600E-002,
   **   ~~~   ** Air System Named = CENTRAL SYSTEM did not converge for energy
   **   ~~~   ** Check values should be zero. Most Recent values listed first.
   **   ~~~   ** Demand-to-Supply interface energy check value iteration history trace: 2285.085956,2285.085956,2285.085956,2285.085956,2285.085957,2285.085957,2285.085957,2285.085957,2285.085957,2285.085957,
   **   ~~~   ** Supply-to-demand interface deck 1 energy check value iteration history trace: 897.006567,897.006567,897.006567,897.006567,897.006567,897.006567,897.006567,897.006568,897.006568,897.006568,
   ** Warning ** SimHVAC: Maximum iterations (20) exceeded for all HVAC loops, at ANNUAL, 10/02 08:58 - 09:00
   **   ~~~   ** The solution for one or more of the Air Loop HVAC systems did not appear to converge
   **   ~~~   ** Air System Named = CENTRAL SYSTEM did not converge for mass flow rate
   **   ~~~   ** Check values should be zero. Most Recent values listed first.
   **   ~~~   ** Demand-to-Supply interface mass flow rate check value iteration history trace: 5.250403E-002,5.250403E-002,5.250403E-002,5.250403E-002,5.250403E-002,5.250403E-002,5.250403E-002,5.250403E-002,5.250403E-002,5.250403E-002,
   **   ~~~   ** Supply-to-demand interface deck 1 mass flow rate check value iteration history trace: 5.250403E-002,5.250403E-002,5.250403E-002,5.250403E-002,5.250403E-002,5.250403E-002,5.250403E-002,5.250403E-002,5.250403E-002,5.250403E-002,
   **   ~~~   ** Air System Named = CENTRAL SYSTEM did not converge for energy
   **   ~~~   ** Check values should be zero. Most Recent values listed first.
   **   ~~~   ** Demand-to-Supply interface energy check value iteration history trace: 1034.594354,1034.594354,1034.594354,1034.594354,1034.594354,1034.594354,1034.594354,1034.594354,1034.594354,1034.594354,
   **   ~~~   ** Supply-to-demand interface deck 1 energy check value iteration history trace: 1881.869240,1881.869240,1881.869240,1881.869240,1881.869240,1881.869239,1881.869239,1881.869239,1881.869239,1881.869239,
   ** Warning ** SimHVAC: Maximum iterations (20) exceeded for all HVAC loops, at ANNUAL, 10/15 04:15 - 04:30
   **   ~~~   ** The solution for one or more of the Air Loop HVAC systems did not appear to converge
   **   ~~~   ** Air System Named = CENTRAL SYSTEM did not converge for mass flow rate
   **   ~~~   ** Check values should be zero. Most Recent values listed first.
   **   ~~~   ** Demand-to-Supply interface mass flow rate check value iteration history trace: 2.931742E-002,2.931742E-002,2.931742E-002,2.931742E-002,2.931742E-002,2.931742E-002,2.931742E-002,2.931742E-002,2.931742E-002,2.931742E-002,
   **   ~~~   ** Supply-to-demand interface deck 1 mass flow rate check value iteration history trace: 2.931742E-002,2.931742E-002,2.931742E-002,2.931742E-002,2.931742E-002,2.931742E-002,2.931742E-002,2.931742E-002,2.931742E-002,2.931742E-002,
   **   ~~~   ** Air System Named = CENTRAL SYSTEM did not converge for energy
   **   ~~~   ** Check values should be zero. Most Recent values listed first.
   **   ~~~   ** Demand-to-Supply interface energy check value iteration history trace: 548.186986,548.186986,548.186986,548.186986,548.186986,548.186986,548.186986,548.186986,548.186986,548.186986,
   **   ~~~   ** Supply-to-demand interface deck 1 energy check value iteration history trace: 1023.655601,1023.655601,1023.655601,1023.655601,1023.655601,1023.655601,1023.655601,1023.655601,1023.655601,1023.655601,
   ** Warning ** SimHVAC: Maximum iterations (20) exceeded for all HVAC loops, at ANNUAL, 12/08 12:20 - 12:25
   **   ~~~   ** The solution for one or more of the Air Loop HVAC systems did not appear to converge
   **   ~~~   ** Air System Named = CENTRAL SYSTEM did not converge for mass flow rate
   **   ~~~   ** Check values should be zero. Most Recent values listed first.
   **   ~~~   ** Demand-to-Supply interface mass flow rate check value iteration history trace: 8.648753E-002,8.648753E-002,8.648753E-002,8.648753E-002,8.648753E-002,8.648753E-002,8.648753E-002,8.648753E-002,8.648753E-002,8.648753E-002,
   **   ~~~   ** Supply-to-demand interface deck 1 mass flow rate check value iteration history trace: 8.648753E-002,8.648753E-002,8.648753E-002,8.648753E-002,8.648753E-002,8.648753E-002,8.648753E-002,8.648753E-002,8.648753E-002,8.648753E-002,
   **   ~~~   ** Air System Named = CENTRAL SYSTEM did not converge for energy
   **   ~~~   ** Check values should be zero. Most Recent values listed first.
   **   ~~~   ** Demand-to-Supply interface energy check value iteration history trace: 1713.520022,1713.520022,1713.520022,1713.520022,1713.520022,1713.520021,1713.520021,1713.520021,1713.520021,1713.520021,
   **   ~~~   ** Supply-to-demand interface deck 1 energy check value iteration history trace: 2632.209275,2632.209275,2632.209274,2632.209274,2632.209274,2632.209274,2632.209274,2632.209273,2632.209273,2632.209273,
   ** Warning ** SimHVAC: Maximum iterations (20) exceeded for all HVAC loops, at ANNUAL, 12/08 16:53 - 16:56
   **   ~~~   ** The solution for one or more of the Air Loop HVAC systems did not appear to converge
   **   ~~~   ** Air System Named = CENTRAL SYSTEM did not converge for mass flow rate
   **   ~~~   ** Check values should be zero. Most Recent values listed first.
   **   ~~~   ** Demand-to-Supply interface mass flow rate check value iteration history trace: 8.226389E-002,8.226389E-002,8.226389E-002,8.226389E-002,8.226389E-002,8.226389E-002,8.226389E-002,8.226389E-002,8.226389E-002,8.226389E-002,
   **   ~~~   ** Supply-to-demand interface deck 1 mass flow rate check value iteration history trace: 8.226389E-002,8.226389E-002,8.226389E-002,8.226389E-002,8.226389E-002,8.226389E-002,8.226389E-002,8.226389E-002,8.226389E-002,8.226389E-002,
   **   ~~~   ** Air System Named = CENTRAL SYSTEM did not converge for energy
   **   ~~~   ** Check values should be zero. Most Recent values listed first.
   **   ~~~   ** Demand-to-Supply interface energy check value iteration history trace: 1627.114197,1627.114197,1627.114197,1627.114197,1627.114197,1627.114197,1627.114197,1627.114196,1627.114196,1627.114196,
   **   ~~~   ** Supply-to-demand interface deck 1 energy check value iteration history trace: 2514.618833,2514.618833,2514.618832,2514.618832,2514.618832,2514.618832,2514.618832,2514.618832,2514.618832,2514.618831,
   ************* Simulation Error Summary *************
   ** Warning ** The following Report Variables were requested but not generated -- check.rdd file
   **   ~~~   ** Either the IDF did not contain these elements, the variable name is misspelled,
   **   ~~~   ** or the requested variable is an advanced output which requires Output : Diagnostics, DisplayAdvancedReportVariables;
   ************* Key=*, VarName=BASEBOARD TOTAL HEATING ENERGY, Frequency=
   ************* Key=*, VarName=WATER HEATER NATURALGAS ENERGY, Frequency=
   ************* Key=*, VarName=COOLING COIL TOTAL HEATING ENERGY, Frequency=
   ************* There are 34 unused schedules in input.
   ************* There are 388 unused week schedules in input.
   ************* There are 396 unused day schedules in input.
   ************* Use Output:Diagnostics,DisplayUnusedSchedules; to see them.
   *************
   ************* ===== Recurring Error Summary =====
   ************* The following recurring error messages occurred.
   *************
   *************  ** Warning ** "TOTAL HOT WATER LOAD" - Target water temperature should be less than or equal to the hot water temperature error continues...
   *************  **   ~~~   **   This error occurred 54913 total times;
   *************  **   ~~~   **   during Warmup 0 times;
   *************  **   ~~~   **   during Sizing 0 times.
   *************  **   ~~~   **   Max=6.807162  Min=5.274982E-004
   *************
   *************
   ************* ===== Final Error Summary =====
   ************* The following error categories occurred.  Consider correcting or noting.
   ************* Nominally Unused Constructions
   ************* ..The nominally unused constructions warning is provided to alert you to potential conditions that can cause
   ************* ..extra time during simulation. Each construction is calculated by the algorithm indicated in the HeatBalanceAlgorithm
   ************* ..object. You may remove the constructions indicated (when you use the DisplayExtraWarnings option).
   *************
   ************* EnergyPlus Warmup Error Summary. During Warmup: 1 Warning; 0 Severe Errors.
   ************* EnergyPlus Sizing Error Summary. During Sizing: 4 Warning; 0 Severe Errors.
   ************* EnergyPlus Completed Successfully-- 54944 Warning; 0 Severe Errors; Elapsed Time=00hr 01min 27.93sec
