Program Version,EnergyPlus, Version 22.2.0-c249759bad, YMD=2023.09.01 16:57,
   ************* Beginning Zone Sizing Calculations
   ** Warning ** ProcessScheduleInput: Schedule:Constant="ALWAYS ON DISCRETE", Schedule Type Limits Name="ONOFF" not found -- will not be validated
   ** Warning ** Foundation:Kiva="KIVA FOUNDATION", no Interior Horizontal Insulation Material Name defined
   **   ~~~   ** Interior Horizontal Insulation Depth will not be used.
   ** Warning ** CheckUsedConstructions: There are 15 nominally unused constructions in input.
   **   ~~~   ** Each Unused construction is shown.
   ************* Construction=INTERIOR FLOOR
   ************* Construction=INTERIOR WINDOW
   ************* Construction=EXTERIOR DOOR
   ************* Construction=INTERIOR DOOR
   ************* Construction=GABLE CONSTRUCTION
   ************* Construction=CRAWL_FLOOR
   ************* Construction=INSULATED PIPE
   ************* Construction=PLAIN PIPE
   ************* Construction=TDD PIPE
   ************* Construction=TDD DOME
   ************* Construction=TDD DIFFUSER
   ************* Construction=CRAWL WALL
   ************* Construction=CEILING-FLOOR-LAYER
   ************* Construction=SLAB CONSTRUCTION W FULL R10 INSULATION
   ************* Construction=SLAB CONSTRUCTION W FULL R5 INSULATION
   ** Warning ** GetDXCoils: Coil:Heating:DX:SingleSpeed="DX_HEATING_COIL" curve values
   **   ~~~   ** ... Defrost Energy Input Ratio Function of Temperature Curve Name = DEFROSTEIR output is not equal to 1.0 (+ or - 10%) at rated conditions.
   **   ~~~   ** ... Curve output at rated conditions = 0.152
   ************* Beginning System Sizing Calculations
   ************* Beginning Plant Sizing Calculations
   ** Warning ** SizeDXCoil Coil:Cooling:DX:SingleSpeed DX_COOLING_COIL
   **   ~~~   ** ...Gross Rated Total Cooling Capacity [W] will be limited by the maximum rated volume flow per rated total capacity ratio.
   **   ~~~   ** ...DX coil volume flow rate ( m3/s ) = 0.550119
   **   ~~~   ** ...Requested capacity ( W ) = 7819.647
   **   ~~~   ** ...Requested flow/capacity ratio ( m3/s/W ) = 7.035E-005
   **   ~~~   ** ...Maximum flow/capacity ratio ( m3/s/W ) = 6.041E-005
   **   ~~~   ** ...Adjusted capacity ( W ) = 9106.431
   ** Warning ** Coil:WaterHeating:AirToWaterHeatPump:Wrapped "HEAT PUMP WATER HEATER EVAPORATOR": Rated air volume flow rate per watt of rated total water heating capacity is out of range
   **   ~~~   ** Min Rated Vol Flow Per Watt=[4.027E-005], Rated Vol Flow Per Watt=[1.510E-004], Max Rated Vol Flow Per Watt=[8.056E-005]. See Input-Output Reference Manual for valid range.
   ************* SizeFan: : Potential issue with equipment sizing for Fan:OnOff HEAT PUMP WATER HEATER FAN
   **   ~~~   ** User-Specified Maximum Flow Rate [m3/s] = 0.22653
   **   ~~~   ** differs from Design Size Maximum Flow Rate [m3/s] = 7.55250E-002
   **   ~~~   ** This may, or may not, indicate mismatched component sizes.
   **   ~~~   ** Verify that the value entered is intended and is consistent with other components.
   ** Warning ** Water heater = WATER HEATER TANK:  Recovery Efficiency and Energy Factor could not be calculated during the test for standard ratings
   **   ~~~   ** Setpoint was never recovered and/or heater never turned on
   ** Warning ** Check input. Pump nominal power or motor efficiency is set to 0, for pump=MAINS PRESSURE
   ** Warning ** Output:Meter: invalid Key Name="ELECTRIC_RANGE:INTERIOREQUIPMENT:ELECTRICITY" - not found.
   ** Warning ** Output:Meter: invalid Key Name="ELECTRIC_DRYER:INTERIOREQUIPMENT:ELECTRICITY" - not found.
   ** Warning ** Output:Meter: invalid Key Name="HEATRECOVERY:ELECTRICITY" - not found.
   ** Warning ** Output:Meter: invalid Key Name="HEATING:NATURALGAS" - not found.
   ** Warning ** Output:Meter: invalid Key Name="WATERSYSTEMS:NATURALGAS" - not found.
   ** Warning ** Output:Meter: invalid Key Name="PROPANE:FACILITY" - not found.
   ** Warning ** Output:Meter: invalid Key Name="HEATING:PROPANE" - not found.
   ************* Testing Individual Branch Integrity
   ************* All Branches passed integrity testing
   ************* Testing Individual Supply Air Path Integrity
   ************* All Supply Air Paths passed integrity testing
   ************* Testing Individual Return Air Path Integrity
   ************* All Return Air Paths passed integrity testing
   ************* No node connection errors were found.
   ************* Beginning Simulation
   ** Warning ** AirflowNetwork::Solver::validate_distribution: Heat pump water heater is simulated along with an AirflowNetwork but is not included in the AirflowNetwork.
   ** Warning ** CalcEquipmentFlowRates: "TOTAL HOT WATER LOAD" - Target water temperature is greater than the hot water temperature by (2.41 C)
   **   ~~~   **  Environment=EXTREME_WINTER, at Simulation time=12/22 06:00 - 06:15
   **   ~~~   ** ...target water temperature     = 53.33 C
   **   ~~~   ** ...hot water temperature        = 50.92 C
   **   ~~~   ** ...Target water temperature should be less than or equal to the hot water temperature. Verify temperature setpoints and schedules.
   ** Warning ** SimHVAC: Maximum iterations (20) exceeded for all HVAC loops, at EXTREME_SUMMER, 07/02 05:38 - 05:45
   **   ~~~   ** The solution for one or more of the Air Loop HVAC systems did not appear to converge
   **   ~~~   ** Air System Named = CENTRAL SYSTEM did not converge for mass flow rate
   **   ~~~   ** Check values should be zero. Most Recent values listed first.
   **   ~~~   ** Demand-to-Supply interface mass flow rate check value iteration history trace: 0.110161,0.110161,0.110161,0.110161,0.110161,0.110161,0.110161,0.110161,0.110161,0.110161,
   **   ~~~   ** Supply-to-demand interface deck 1 mass flow rate check value iteration history trace: 0.110161,0.110161,0.110161,0.110161,0.110161,0.110161,0.110161,0.110161,0.110161,0.110161,
   **   ~~~   ** Air System Named = CENTRAL SYSTEM did not converge for energy
   **   ~~~   ** Check values should be zero. Most Recent values listed first.
   **   ~~~   ** Demand-to-Supply interface energy check value iteration history trace: 2601.846813,2601.846814,2601.846815,2601.846815,2601.846816,2601.846817,2601.846817,2601.846818,2601.846819,2601.846819,
   **   ~~~   ** Supply-to-demand interface deck 1 energy check value iteration history trace: 1099.079095,1099.079095,1099.079096,1099.079096,1099.079096,1099.079097,1099.079097,1099.079097,1099.079097,1099.079098,
   ** Warning ** SimHVAC: Maximum iterations (20) exceeded for all HVAC loops, at EXTREME_SUMMER, 07/05 04:25 - 04:30
   **   ~~~   ** The solution for one or more of the Air Loop HVAC systems did not appear to converge
   **   ~~~   ** Air System Named = CENTRAL SYSTEM did not converge for mass flow rate
   **   ~~~   ** Check values should be zero. Most Recent values listed first.
   **   ~~~   ** Demand-to-Supply interface mass flow rate check value iteration history trace: 0.256010,0.256010,0.256010,0.256010,0.256010,0.256010,0.256010,0.256010,0.256010,0.256010,
   **   ~~~   ** Supply-to-demand interface deck 1 mass flow rate check value iteration history trace: 0.256010,0.256010,0.256010,0.256010,0.256010,0.256010,0.256010,0.256010,0.256010,0.256010,
   **   ~~~   ** Air System Named = CENTRAL SYSTEM did not converge for energy
   **   ~~~   ** Check values should be zero. Most Recent values listed first.
   **   ~~~   ** Demand-to-Supply interface energy check value iteration history trace: 6469.763305,6469.763307,6469.763309,6469.763311,6469.763312,6469.763314,6469.763316,6469.763318,6469.763319,6469.763321,
   **   ~~~   ** Supply-to-demand interface deck 1 energy check value iteration history trace: 2935.487888,2935.487889,2935.487890,2935.487891,2935.487891,2935.487892,2935.487893,2935.487894,2935.487895,2935.487895,
   ** Warning ** SimHVAC: Maximum iterations (20) exceeded for all HVAC loops, at ANNUAL, 01/08 09:32 - 09:35
   **   ~~~   ** The solution for one or more of the Air Loop HVAC systems did not appear to converge
   **   ~~~   ** Air System Named = CENTRAL SYSTEM did not converge for mass flow rate
   **   ~~~   ** Check values should be zero. Most Recent values listed first.
   **   ~~~   ** Demand-to-Supply interface mass flow rate check value iteration history trace: 6.808443E-002,6.808443E-002,6.808443E-002,6.808443E-002,6.808443E-002,6.808443E-002,6.808443E-002,6.808443E-002,6.808443E-002,6.808443E-002,
   **   ~~~   ** Supply-to-demand interface deck 1 mass flow rate check value iteration history trace: 6.808443E-002,6.808443E-002,6.808443E-002,6.808443E-002,6.808443E-002,6.808443E-002,6.808443E-002,6.808443E-002,6.808443E-002,6.808443E-002,
   **   ~~~   ** Air System Named = CENTRAL SYSTEM did not converge for energy
   **   ~~~   ** Check values should be zero. Most Recent values listed first.
   **   ~~~   ** Demand-to-Supply interface energy check value iteration history trace: 1349.261855,1349.261855,1349.261855,1349.261855,1349.261855,1349.261855,1349.261855,1349.261855,1349.261855,1349.261855,
   **   ~~~   ** Supply-to-demand interface deck 1 energy check value iteration history trace: 2372.948311,2372.948310,2372.948310,2372.948310,2372.948310,2372.948310,2372.948310,2372.948310,2372.948310,2372.948310,
   ** Warning ** SimHVAC: Maximum iterations (20) exceeded for all HVAC loops, at ANNUAL, 01/10 09:15 - 09:30
   **   ~~~   ** The solution for one or more of the Air Loop HVAC systems did not appear to converge
   **   ~~~   ** Air System Named = CENTRAL SYSTEM did not converge for mass flow rate
   **   ~~~   ** Check values should be zero. Most Recent values listed first.
   **   ~~~   ** Demand-to-Supply interface mass flow rate check value iteration history trace: 5.940785E-002,5.940785E-002,5.940785E-002,5.940785E-002,5.940785E-002,5.940785E-002,5.940785E-002,5.940785E-002,5.940785E-002,5.940785E-002,
   **   ~~~   ** Supply-to-demand interface deck 1 mass flow rate check value iteration history trace: 5.940785E-002,5.940785E-002,5.940785E-002,5.940785E-002,5.940785E-002,5.940785E-002,5.940785E-002,5.940785E-002,5.940785E-002,5.940785E-002,
   **   ~~~   ** Air System Named = CENTRAL SYSTEM did not converge for energy
   **   ~~~   ** Check values should be zero. Most Recent values listed first.
   **   ~~~   ** Demand-to-Supply interface energy check value iteration history trace: 1177.211991,1177.211991,1177.211991,1177.211991,1177.211991,1177.211991,1177.211991,1177.211991,1177.211991,1177.211991,
   **   ~~~   ** Supply-to-demand interface deck 1 energy check value iteration history trace: 2086.374797,2086.374797,2086.374797,2086.374797,2086.374797,2086.374797,2086.374797,2086.374797,2086.374797,2086.374797,
   ** Warning ** SimHVAC: Maximum iterations (20) exceeded for all HVAC loops, at ANNUAL, 02/18 09:15 - 09:19
   **   ~~~   ** The solution for one or more of the Air Loop HVAC systems did not appear to converge
   **   ~~~   ** Air System Named = CENTRAL SYSTEM did not converge for mass flow rate
   **   ~~~   ** Check values should be zero. Most Recent values listed first.
   **   ~~~   ** Demand-to-Supply interface mass flow rate check value iteration history trace: 5.986733E-002,5.986733E-002,5.986733E-002,5.986733E-002,5.986733E-002,5.986733E-002,5.986733E-002,5.986733E-002,5.986733E-002,5.986733E-002,
   **   ~~~   ** Supply-to-demand interface deck 1 mass flow rate check value iteration history trace: 5.986733E-002,5.986733E-002,5.986733E-002,5.986733E-002,5.986733E-002,5.986733E-002,5.986733E-002,5.986733E-002,5.986733E-002,5.986733E-002,
   **   ~~~   ** Air System Named = CENTRAL SYSTEM did not converge for energy
   **   ~~~   ** Check values should be zero. Most Recent values listed first.
   **   ~~~   ** Demand-to-Supply interface energy check value iteration history trace: 1182.331741,1182.331741,1182.331741,1182.331741,1182.331741,1182.331741,1182.331741,1182.331741,1182.331741,1182.331741,
   **   ~~~   ** Supply-to-demand interface deck 1 energy check value iteration history trace: 2257.257875,2257.257874,2257.257874,2257.257874,2257.257874,2257.257874,2257.257874,2257.257874,2257.257874,2257.257874,
   ** Warning ** SimHVAC: Maximum iterations (20) exceeded for all HVAC loops, at ANNUAL, 02/21 09:17 - 09:19
   **   ~~~   ** The solution for one or more of the Air Loop HVAC systems did not appear to converge
   **   ~~~   ** Air System Named = CENTRAL SYSTEM did not converge for mass flow rate
   **   ~~~   ** Check values should be zero. Most Recent values listed first.
   **   ~~~   ** Demand-to-Supply interface mass flow rate check value iteration history trace: 5.425741E-002,5.425741E-002,5.425741E-002,5.425741E-002,5.425741E-002,5.425741E-002,5.425741E-002,5.425741E-002,5.425741E-002,5.425741E-002,
   **   ~~~   ** Supply-to-demand interface deck 1 mass flow rate check value iteration history trace: 5.425741E-002,5.425741E-002,5.425741E-002,5.425741E-002,5.425741E-002,5.425741E-002,5.425741E-002,5.425741E-002,5.425741E-002,5.425741E-002,
   **   ~~~   ** Air System Named = CENTRAL SYSTEM did not converge for energy
   **   ~~~   ** Check values should be zero. Most Recent values listed first.
   **   ~~~   ** Demand-to-Supply interface energy check value iteration history trace: 1071.049617,1071.049617,1071.049617,1071.049617,1071.049616,1071.049616,1071.049616,1071.049616,1071.049616,1071.049616,
   **   ~~~   ** Supply-to-demand interface deck 1 energy check value iteration history trace: 1984.387832,1984.387832,1984.387831,1984.387831,1984.387831,1984.387831,1984.387831,1984.387831,1984.387831,1984.387831,
   ** Warning ** SimHVAC: Maximum iterations (20) exceeded for all HVAC loops, at ANNUAL, 02/27 08:26 - 08:28
   **   ~~~   ** The solution for one or more of the Air Loop HVAC systems did not appear to converge
   **   ~~~   ** Air System Named = CENTRAL SYSTEM did not converge for mass flow rate
   **   ~~~   ** Check values should be zero. Most Recent values listed first.
   **   ~~~   ** Demand-to-Supply interface mass flow rate check value iteration history trace: 5.353335E-002,5.353335E-002,5.353335E-002,5.353335E-002,5.353335E-002,5.353335E-002,5.353335E-002,5.353335E-002,5.353335E-002,5.353335E-002,
   **   ~~~   ** Supply-to-demand interface deck 1 mass flow rate check value iteration history trace: 5.353335E-002,5.353335E-002,5.353335E-002,5.353335E-002,5.353335E-002,5.353335E-002,5.353335E-002,5.353335E-002,5.353335E-002,5.353335E-002,
   **   ~~~   ** Air System Named = CENTRAL SYSTEM did not converge for energy
   **   ~~~   ** Check values should be zero. Most Recent values listed first.
   **   ~~~   ** Demand-to-Supply interface energy check value iteration history trace: 1060.063871,1060.063871,1060.063871,1060.063871,1060.063871,1060.063871,1060.063871,1060.063871,1060.063871,1060.063871,
   **   ~~~   ** Supply-to-demand interface deck 1 energy check value iteration history trace: 1941.734276,1941.734276,1941.734276,1941.734276,1941.734276,1941.734276,1941.734276,1941.734276,1941.734275,1941.734275,
   ** Warning ** Temperature out of range [-100. to 200.] (PsyPsatFnTemp)
   **   ~~~   **  Routine=PsyTwbFnTdbWPb, Environment=ANNUAL, at Simulation time=03/05 07:15 - 07:22
   **   ~~~   **  Input Temperature=-154.34
   ** Warning ** SimHVAC: Maximum iterations (20) exceeded for all HVAC loops, at ANNUAL, 03/05 09:17 - 09:18
   **   ~~~   ** The solution for one or more of the Air Loop HVAC systems did not appear to converge
   **   ~~~   ** Air System Named = CENTRAL SYSTEM did not converge for mass flow rate
   **   ~~~   ** Check values should be zero. Most Recent values listed first.
   **   ~~~   ** Demand-to-Supply interface mass flow rate check value iteration history trace: 6.009007E-002,6.009007E-002,6.009007E-002,6.009007E-002,6.009007E-002,6.009007E-002,6.009007E-002,6.009007E-002,6.009007E-002,6.009007E-002,
   **   ~~~   ** Supply-to-demand interface deck 1 mass flow rate check value iteration history trace: 6.009007E-002,6.009007E-002,6.009007E-002,6.009007E-002,6.009007E-002,6.009007E-002,6.009007E-002,6.009007E-002,6.009007E-002,6.009007E-002,
   **   ~~~   ** Air System Named = CENTRAL SYSTEM did not converge for energy
   **   ~~~   ** Check values should be zero. Most Recent values listed first.
   **   ~~~   ** Demand-to-Supply interface energy check value iteration history trace: 1187.380807,1187.380807,1187.380806,1187.380806,1187.380806,1187.380806,1187.380806,1187.380806,1187.380806,1187.380806,
   **   ~~~   ** Supply-to-demand interface deck 1 energy check value iteration history trace: 2251.909200,2251.909200,2251.909200,2251.909200,2251.909199,2251.909199,2251.909199,2251.909199,2251.909199,2251.909199,
   ** Warning ** SimHVAC: Maximum iterations (20) exceeded for all HVAC loops, at ANNUAL, 03/13 07:15 - 07:20
   **   ~~~   ** The solution for one or more of the Air Loop HVAC systems did not appear to converge
   **   ~~~   ** Air System Named = CENTRAL SYSTEM did not converge for mass flow rate
   **   ~~~   ** Check values should be zero. Most Recent values listed first.
   **   ~~~   ** Demand-to-Supply interface mass flow rate check value iteration history trace: 5.829257E-002,5.829257E-002,5.829257E-002,5.829257E-002,5.829257E-002,5.829257E-002,5.829257E-002,5.829257E-002,5.829257E-002,5.829257E-002,
   **   ~~~   ** Supply-to-demand interface deck 1 mass flow rate check value iteration history trace: 5.829257E-002,5.829257E-002,5.829257E-002,5.829257E-002,5.829257E-002,5.829257E-002,5.829257E-002,5.829257E-002,5.829257E-002,5.829257E-002,
   **   ~~~   ** Air System Named = CENTRAL SYSTEM did not converge for energy
   **   ~~~   ** Check values should be zero. Most Recent values listed first.
   **   ~~~   ** Demand-to-Supply interface energy check value iteration history trace: 1155.121314,1155.121314,1155.121314,1155.121314,1155.121314,1155.121314,1155.121313,1155.121313,1155.121313,1155.121313,
   **   ~~~   ** Supply-to-demand interface deck 1 energy check value iteration history trace: 2120.634227,2120.634227,2120.634226,2120.634226,2120.634226,2120.634226,2120.634226,2120.634226,2120.634226,2120.634226,
   ** Warning ** SimHVAC: Maximum iterations (20) exceeded for all HVAC loops, at ANNUAL, 04/07 04:00 - 04:15
   **   ~~~   ** The solution for one or more of the Air Loop HVAC systems did not appear to converge
   **   ~~~   ** Air System Named = CENTRAL SYSTEM did not converge for mass flow rate
   **   ~~~   ** Check values should be zero. Most Recent values listed first.
   **   ~~~   ** Demand-to-Supply interface mass flow rate check value iteration history trace: 4.450028E-002,4.450028E-002,4.450028E-002,4.450028E-002,4.450028E-002,4.450028E-002,4.450028E-002,4.450028E-002,4.450028E-002,4.450028E-002,
   **   ~~~   ** Supply-to-demand interface deck 1 mass flow rate check value iteration history trace: 4.450028E-002,4.450028E-002,4.450028E-002,4.450028E-002,4.450028E-002,4.450028E-002,4.450028E-002,4.450028E-002,4.450028E-002,4.450028E-002,
   **   ~~~   ** Air System Named = CENTRAL SYSTEM did not converge for energy
   **   ~~~   ** Check values should be zero. Most Recent values listed first.
   **   ~~~   ** Demand-to-Supply interface energy check value iteration history trace: 826.594169,826.594169,826.594169,826.594169,826.594169,826.594169,826.594169,826.594169,826.594169,826.594169,
   **   ~~~   ** Supply-to-demand interface deck 1 energy check value iteration history trace: 1522.422812,1522.422812,1522.422812,1522.422812,1522.422812,1522.422812,1522.422812,1522.422812,1522.422812,1522.422811,
   ** Warning ** SimHVAC: Maximum iterations (20) exceeded for all HVAC loops, at ANNUAL, 04/11 07:48 - 07:50
   **   ~~~   ** The solution for one or more of the Air Loop HVAC systems did not appear to converge
   **   ~~~   ** Air System Named = CENTRAL SYSTEM did not converge for mass flow rate
   **   ~~~   ** Check values should be zero. Most Recent values listed first.
   **   ~~~   ** Demand-to-Supply interface mass flow rate check value iteration history trace: 5.560211E-002,5.560211E-002,5.560211E-002,5.560211E-002,5.560211E-002,5.560211E-002,5.560211E-002,5.560211E-002,5.560211E-002,5.560211E-002,
   **   ~~~   ** Supply-to-demand interface deck 1 mass flow rate check value iteration history trace: 5.560211E-002,5.560211E-002,5.560211E-002,5.560211E-002,5.560211E-002,5.560211E-002,5.560211E-002,5.560211E-002,5.560211E-002,5.560211E-002,
   **   ~~~   ** Air System Named = CENTRAL SYSTEM did not converge for energy
   **   ~~~   ** Check values should be zero. Most Recent values listed first.
   **   ~~~   ** Demand-to-Supply interface energy check value iteration history trace: 1100.233764,1100.233764,1100.233764,1100.233764,1100.233763,1100.233763,1100.233763,1100.233763,1100.233763,1100.233763,
   **   ~~~   ** Supply-to-demand interface deck 1 energy check value iteration history trace: 2028.636265,2028.636265,2028.636265,2028.636265,2028.636265,2028.636264,2028.636264,2028.636264,2028.636264,2028.636264,
   ** Warning ** SimHVAC: Maximum iterations (20) exceeded for all HVAC loops, at ANNUAL, 04/14 06:45 - 07:00
   **   ~~~   ** The solution for one or more of the Air Loop HVAC systems did not appear to converge
   **   ~~~   ** Air System Named = CENTRAL SYSTEM did not converge for mass flow rate
   **   ~~~   ** Check values should be zero. Most Recent values listed first.
   **   ~~~   ** Demand-to-Supply interface mass flow rate check value iteration history trace: 5.668247E-002,5.668247E-002,5.668247E-002,5.668247E-002,5.668247E-002,5.668247E-002,5.668247E-002,5.668247E-002,5.668247E-002,5.668247E-002,
   **   ~~~   ** Supply-to-demand interface deck 1 mass flow rate check value iteration history trace: 5.668247E-002,5.668247E-002,5.668247E-002,5.668247E-002,5.668247E-002,5.668247E-002,5.668247E-002,5.668247E-002,5.668247E-002,5.668247E-002,
   **   ~~~   ** Air System Named = CENTRAL SYSTEM did not converge for energy
   **   ~~~   ** Check values should be zero. Most Recent values listed first.
   **   ~~~   ** Demand-to-Supply interface energy check value iteration history trace: 1123.179229,1123.179229,1123.179229,1123.179229,1123.179229,1123.179229,1123.179228,1123.179228,1123.179228,1123.179228,
   **   ~~~   ** Supply-to-demand interface deck 1 energy check value iteration history trace: 2046.470480,2046.470480,2046.470480,2046.470480,2046.470480,2046.470479,2046.470479,2046.470479,2046.470479,2046.470479,
   ** Warning ** SimHVAC: Maximum iterations (20) exceeded for all HVAC loops, at ANNUAL, 10/06 07:00 - 07:15
   **   ~~~   ** The solution for one or more of the Air Loop HVAC systems did not appear to converge
   **   ~~~   ** Air System Named = CENTRAL SYSTEM did not converge for mass flow rate
   **   ~~~   ** Check values should be zero. Most Recent values listed first.
   **   ~~~   ** Demand-to-Supply interface mass flow rate check value iteration history trace: 5.015793E-002,5.015793E-002,5.015793E-002,5.015793E-002,5.015793E-002,5.015793E-002,5.015793E-002,5.015793E-002,5.015793E-002,5.015793E-002,
   **   ~~~   ** Supply-to-demand interface deck 1 mass flow rate check value iteration history trace: 5.015793E-002,5.015793E-002,5.015793E-002,5.015793E-002,5.015793E-002,5.015793E-002,5.015793E-002,5.015793E-002,5.015793E-002,5.015793E-002,
   **   ~~~   ** Air System Named = CENTRAL SYSTEM did not converge for energy
   **   ~~~   ** Check values should be zero. Most Recent values listed first.
   **   ~~~   ** Demand-to-Supply interface energy check value iteration history trace: 992.543892,992.543892,992.543892,992.543892,992.543892,992.543892,992.543892,992.543892,992.543892,992.543892,
   **   ~~~   ** Supply-to-demand interface deck 1 energy check value iteration history trace: 1801.056613,1801.056613,1801.056613,1801.056613,1801.056613,1801.056613,1801.056613,1801.056613,1801.056613,1801.056613,
   ** Warning ** SimHVAC: Maximum iterations (20) exceeded for all HVAC loops, at ANNUAL, 11/12 09:00 - 09:15
   **   ~~~   ** The solution for one or more of the Air Loop HVAC systems did not appear to converge
   **   ~~~   ** Air System Named = CENTRAL SYSTEM did not converge for mass flow rate
   **   ~~~   ** Check values should be zero. Most Recent values listed first.
   **   ~~~   ** Demand-to-Supply interface mass flow rate check value iteration history trace: 6.514962E-002,6.514962E-002,6.514962E-002,6.514962E-002,6.514962E-002,6.514962E-002,6.514962E-002,6.514962E-002,6.514962E-002,6.514962E-002,
   **   ~~~   ** Supply-to-demand interface deck 1 mass flow rate check value iteration history trace: 6.514962E-002,6.514962E-002,6.514962E-002,6.514962E-002,6.514962E-002,6.514962E-002,6.514962E-002,6.514962E-002,6.514962E-002,6.514962E-002,
   **   ~~~   ** Air System Named = CENTRAL SYSTEM did not converge for energy
   **   ~~~   ** Check values should be zero. Most Recent values listed first.
   **   ~~~   ** Demand-to-Supply interface energy check value iteration history trace: 1291.061693,1291.061693,1291.061693,1291.061693,1291.061693,1291.061693,1291.061693,1291.061693,1291.061693,1291.061693,
   **   ~~~   ** Supply-to-demand interface deck 1 energy check value iteration history trace: 2278.033814,2278.033814,2278.033814,2278.033814,2278.033814,2278.033814,2278.033814,2278.033814,2278.033814,2278.033813,
   ************* Simulation Error Summary *************
   ** Warning ** The following Report Variables were requested but not generated -- check.rdd file
   **   ~~~   ** Either the IDF did not contain these elements, the variable name is misspelled,
   **   ~~~   ** or the requested variable is an advanced output which requires Output : Diagnostics, DisplayAdvancedReportVariables;
   ************* Key=*, VarName=BASEBOARD TOTAL HEATING ENERGY, Frequency=
   ************* Key=*, VarName=WATER HEATER NATURALGAS ENERGY, Frequency=
   ************* Key=*, VarName=COOLING COIL TOTAL HEATING ENERGY, Frequency=
   ************* There are 34 unused schedules in input.
   ************* There are 388 unused week schedules in input.
   ************* There are 396 unused day schedules in input.
   ************* Use Output:Diagnostics,DisplayUnusedSchedules; to see them.
   *************
   ************* ===== Recurring Error Summary =====
   ************* The following recurring error messages occurred.
   *************
   *************  ** Warning ** "TOTAL HOT WATER LOAD" - Target water temperature should be less than or equal to the hot water temperature error continues...
   *************  **   ~~~   **   This error occurred 156649 total times;
   *************  **   ~~~   **   during Warmup 0 times;
   *************  **   ~~~   **   during Sizing 0 times.
   *************  **   ~~~   **   Max=9.004369  Min=4.959980E-004
   *************
   *************  ** Warning ** Temperature out of range [-100. to 200.] (PsyPsatFnTemp)
   *************  **   ~~~   **   This error occurred 2 total times;
   *************  **   ~~~   **   during Warmup 0 times;
   *************  **   ~~~   **   during Sizing 0 times.
   *************  **   ~~~   **   Max=-154.344551 C  Min=-166.66993 C
   *************
   *************  ** Warning ** SimHVAC: Exceeding Maximum iterations for all HVAC loops, during ANNUAL continues
   *************  **   ~~~   **   This error occurred 5 total times;
   *************  **   ~~~   **   during Warmup 0 times;
   *************  **   ~~~   **   during Sizing 0 times.
   *************
   *************
   ************* ===== Final Error Summary =====
   ************* The following error categories occurred.  Consider correcting or noting.
   ************* Nominally Unused Constructions
   ************* ..The nominally unused constructions warning is provided to alert you to potential conditions that can cause
   ************* ..extra time during simulation. Each construction is calculated by the algorithm indicated in the HeatBalanceAlgorithm
   ************* ..object. You may remove the constructions indicated (when you use the DisplayExtraWarnings option).
   *************
   ************* EnergyPlus Warmup Error Summary. During Warmup: 1 Warning; 0 Severe Errors.
   ************* EnergyPlus Sizing Error Summary. During Sizing: 4 Warning; 0 Severe Errors.
   ************* EnergyPlus Completed Successfully-- 156688 Warning; 0 Severe Errors; Elapsed Time=00hr 06min 53.95sec
