Program Version,EnergyPlus, Version 22.2.0-c249759bad, YMD=2023.09.01 19:54,
   ************* Beginning Zone Sizing Calculations
   ** Warning ** ProcessScheduleInput: Schedule:Constant="ALWAYS ON DISCRETE", Schedule Type Limits Name="ONOFF" not found -- will not be validated
   ** Warning ** Foundation:Kiva="KIVA FOUNDATION", no Interior Horizontal Insulation Material Name defined
   **   ~~~   ** Interior Horizontal Insulation Depth will not be used.
   ** Warning ** CheckUsedConstructions: There are 15 nominally unused constructions in input.
   **   ~~~   ** Each Unused construction is shown.
   ************* Construction=INTERIOR FLOOR
   ************* Construction=INTERIOR WINDOW
   ************* Construction=EXTERIOR DOOR
   ************* Construction=INTERIOR DOOR
   ************* Construction=GABLE CONSTRUCTION
   ************* Construction=CRAWL_FLOOR
   ************* Construction=INSULATED PIPE
   ************* Construction=PLAIN PIPE
   ************* Construction=TDD PIPE
   ************* Construction=TDD DOME
   ************* Construction=TDD DIFFUSER
   ************* Construction=CRAWL WALL
   ************* Construction=CEILING-FLOOR-LAYER
   ************* Construction=SLAB CONSTRUCTION W FULL R10 INSULATION
   ************* Construction=SLAB CONSTRUCTION W FULL R5 INSULATION
   ** Warning ** GetDXCoils: Coil:Heating:DX:SingleSpeed="DX_HEATING_COIL" curve values
   **   ~~~   ** ... Defrost Energy Input Ratio Function of Temperature Curve Name = DEFROSTEIR output is not equal to 1.0 (+ or - 10%) at rated conditions.
   **   ~~~   ** ... Curve output at rated conditions = 0.152
   ************* Beginning System Sizing Calculations
   ************* Beginning Plant Sizing Calculations
   ** Warning ** SizeDXCoil Coil:Cooling:DX:SingleSpeed DX_COOLING_COIL
   **   ~~~   ** ...Gross Rated Total Cooling Capacity [W] will be limited by the maximum rated volume flow per rated total capacity ratio.
   **   ~~~   ** ...DX coil volume flow rate ( m3/s ) = 0.578820
   **   ~~~   ** ...Requested capacity ( W ) = 8413.076
   **   ~~~   ** ...Requested flow/capacity ratio ( m3/s/W ) = 6.880E-005
   **   ~~~   ** ...Maximum flow/capacity ratio ( m3/s/W ) = 6.041E-005
   **   ~~~   ** ...Adjusted capacity ( W ) = 9581.539
   ** Warning ** Coil:WaterHeating:AirToWaterHeatPump:Wrapped "HEAT PUMP WATER HEATER EVAPORATOR": Rated air volume flow rate per watt of rated total water heating capacity is out of range
   **   ~~~   ** Min Rated Vol Flow Per Watt=[4.027E-005], Rated Vol Flow Per Watt=[1.510E-004], Max Rated Vol Flow Per Watt=[8.056E-005]. See Input-Output Reference Manual for valid range.
   ************* SizeFan: : Potential issue with equipment sizing for Fan:OnOff HEAT PUMP WATER HEATER FAN
   **   ~~~   ** User-Specified Maximum Flow Rate [m3/s] = 0.22653
   **   ~~~   ** differs from Design Size Maximum Flow Rate [m3/s] = 7.55250E-002
   **   ~~~   ** This may, or may not, indicate mismatched component sizes.
   **   ~~~   ** Verify that the value entered is intended and is consistent with other components.
   ** Warning ** Water heater = WATER HEATER TANK:  Recovery Efficiency and Energy Factor could not be calculated during the test for standard ratings
   **   ~~~   ** Setpoint was never recovered and/or heater never turned on
   ** Warning ** Check input. Pump nominal power or motor efficiency is set to 0, for pump=MAINS PRESSURE
   ** Warning ** Output:Meter: invalid Key Name="ELECTRIC_RANGE:INTERIOREQUIPMENT:ELECTRICITY" - not found.
   ** Warning ** Output:Meter: invalid Key Name="ELECTRIC_DRYER:INTERIOREQUIPMENT:ELECTRICITY" - not found.
   ** Warning ** Output:Meter: invalid Key Name="HEATRECOVERY:ELECTRICITY" - not found.
   ** Warning ** Output:Meter: invalid Key Name="HEATING:NATURALGAS" - not found.
   ** Warning ** Output:Meter: invalid Key Name="WATERSYSTEMS:NATURALGAS" - not found.
   ** Warning ** Output:Meter: invalid Key Name="PROPANE:FACILITY" - not found.
   ** Warning ** Output:Meter: invalid Key Name="HEATING:PROPANE" - not found.
   ************* Testing Individual Branch Integrity
   ************* All Branches passed integrity testing
   ************* Testing Individual Supply Air Path Integrity
   ************* All Supply Air Paths passed integrity testing
   ************* Testing Individual Return Air Path Integrity
   ************* All Return Air Paths passed integrity testing
   ************* No node connection errors were found.
   ************* Beginning Simulation
   ** Warning ** AirflowNetwork::Solver::validate_distribution: Heat pump water heater is simulated along with an AirflowNetwork but is not included in the AirflowNetwork.
   ** Warning ** CalcEquipmentFlowRates: "TOTAL HOT WATER LOAD" - Target water temperature is greater than the hot water temperature by (6.34 C)
   **   ~~~   **  Environment=EXTREME_WINTER, at Simulation time=12/22 06:00 - 06:15
   **   ~~~   ** ...target water temperature     = 53.33 C
   **   ~~~   ** ...hot water temperature        = 46.99 C
   **   ~~~   ** ...Target water temperature should be less than or equal to the hot water temperature. Verify temperature setpoints and schedules.
   ** Warning ** SimHVAC: Maximum iterations (20) exceeded for all HVAC loops, at EXTREME_WINTER, 12/22 19:00 - 19:15
   **   ~~~   ** The solution for one or more of the Air Loop HVAC systems did not appear to converge
   **   ~~~   ** Air System Named = CENTRAL SYSTEM did not converge for mass flow rate
   **   ~~~   ** Check values should be zero. Most Recent values listed first.
   **   ~~~   ** Demand-to-Supply interface mass flow rate check value iteration history trace: 6.432430E-002,6.432430E-002,6.432430E-002,6.432430E-002,6.432430E-002,6.432430E-002,6.432430E-002,6.432430E-002,6.432430E-002,6.432430E-002,
   **   ~~~   ** Supply-to-demand interface deck 1 mass flow rate check value iteration history trace: 6.432430E-002,6.432430E-002,6.432430E-002,6.432430E-002,6.432430E-002,6.432430E-002,6.432430E-002,6.432430E-002,6.432430E-002,6.432430E-002,
   **   ~~~   ** Air System Named = CENTRAL SYSTEM did not converge for energy
   **   ~~~   ** Check values should be zero. Most Recent values listed first.
   **   ~~~   ** Demand-to-Supply interface energy check value iteration history trace: 1274.548832,1274.548832,1274.548832,1274.548832,1274.548832,1274.548832,1274.548832,1274.548832,1274.548832,1274.548832,
   **   ~~~   ** Supply-to-demand interface deck 1 energy check value iteration history trace: 2219.038976,2219.038976,2219.038976,2219.038976,2219.038976,2219.038975,2219.038975,2219.038975,2219.038975,2219.038975,
   ** Warning ** SimHVAC: Maximum iterations (20) exceeded for all HVAC loops, at EXTREME_WINTER, 12/31 17:30 - 17:38
   **   ~~~   ** The solution for one or more of the Air Loop HVAC systems did not appear to converge
   **   ~~~   ** Air System Named = CENTRAL SYSTEM did not converge for mass flow rate
   **   ~~~   ** Check values should be zero. Most Recent values listed first.
   **   ~~~   ** Demand-to-Supply interface mass flow rate check value iteration history trace: 6.217313E-002,6.217313E-002,6.217313E-002,6.217313E-002,6.217313E-002,6.217313E-002,6.217313E-002,6.217313E-002,6.217313E-002,6.217313E-002,
   **   ~~~   ** Supply-to-demand interface deck 1 mass flow rate check value iteration history trace: 6.217313E-002,6.217313E-002,6.217313E-002,6.217313E-002,6.217313E-002,6.217313E-002,6.217313E-002,6.217313E-002,6.217313E-002,6.217313E-002,
   **   ~~~   ** Air System Named = CENTRAL SYSTEM did not converge for energy
   **   ~~~   ** Check values should be zero. Most Recent values listed first.
   **   ~~~   ** Demand-to-Supply interface energy check value iteration history trace: 1213.561472,1213.561471,1213.561471,1213.561471,1213.561471,1213.561471,1213.561471,1213.561471,1213.561471,1213.561471,
   **   ~~~   ** Supply-to-demand interface deck 1 energy check value iteration history trace: 2155.271192,2155.271192,2155.271192,2155.271192,2155.271191,2155.271191,2155.271191,2155.271191,2155.271191,2155.271191,
   ** Warning ** SimHVAC: Maximum iterations (20) exceeded for all HVAC loops, at ANNUAL, 01/09 10:45 - 10:49
   **   ~~~   ** The solution for one or more of the Air Loop HVAC systems did not appear to converge
   **   ~~~   ** Air System Named = CENTRAL SYSTEM did not converge for mass flow rate
   **   ~~~   ** Check values should be zero. Most Recent values listed first.
   **   ~~~   ** Demand-to-Supply interface mass flow rate check value iteration history trace: 5.775658E-002,5.775658E-002,5.775658E-002,5.775658E-002,5.775658E-002,5.775658E-002,5.775658E-002,5.775658E-002,5.775658E-002,5.775658E-002,
   **   ~~~   ** Supply-to-demand interface deck 1 mass flow rate check value iteration history trace: 5.775658E-002,5.775658E-002,5.775658E-002,5.775658E-002,5.775658E-002,5.775658E-002,5.775658E-002,5.775658E-002,5.775658E-002,5.775658E-002,
   **   ~~~   ** Air System Named = CENTRAL SYSTEM did not converge for energy
   **   ~~~   ** Check values should be zero. Most Recent values listed first.
   **   ~~~   ** Demand-to-Supply interface energy check value iteration history trace: 1144.555969,1144.555969,1144.555969,1144.555969,1144.555969,1144.555969,1144.555969,1144.555969,1144.555969,1144.555969,
   **   ~~~   ** Supply-to-demand interface deck 1 energy check value iteration history trace: 2013.465663,2013.465662,2013.465662,2013.465662,2013.465662,2013.465662,2013.465662,2013.465662,2013.465662,2013.465662,
   ** Warning ** SimHVAC: Maximum iterations (20) exceeded for all HVAC loops, at ANNUAL, 01/12 09:45 - 10:00
   **   ~~~   ** The solution for one or more of the Air Loop HVAC systems did not appear to converge
   **   ~~~   ** Air System Named = CENTRAL SYSTEM did not converge for mass flow rate
   **   ~~~   ** Check values should be zero. Most Recent values listed first.
   **   ~~~   ** Demand-to-Supply interface mass flow rate check value iteration history trace: 6.797263E-002,6.797263E-002,6.797263E-002,6.797263E-002,6.797263E-002,6.797263E-002,6.797263E-002,6.797263E-002,6.797263E-002,6.797263E-002,
   **   ~~~   ** Supply-to-demand interface deck 1 mass flow rate check value iteration history trace: 6.797263E-002,6.797263E-002,6.797263E-002,6.797263E-002,6.797263E-002,6.797263E-002,6.797263E-002,6.797263E-002,6.797263E-002,6.797263E-002,
   **   ~~~   ** Air System Named = CENTRAL SYSTEM did not converge for energy
   **   ~~~   ** Check values should be zero. Most Recent values listed first.
   **   ~~~   ** Demand-to-Supply interface energy check value iteration history trace: 1346.962099,1346.962098,1346.962098,1346.962098,1346.962098,1346.962098,1346.962098,1346.962098,1346.962098,1346.962098,
   **   ~~~   ** Supply-to-demand interface deck 1 energy check value iteration history trace: 2133.401932,2133.401932,2133.401932,2133.401932,2133.401932,2133.401932,2133.401932,2133.401932,2133.401932,2133.401931,
   ** Warning ** SimHVAC: Maximum iterations (20) exceeded for all HVAC loops, at ANNUAL, 02/03 08:45 - 08:49
   **   ~~~   ** The solution for one or more of the Air Loop HVAC systems did not appear to converge
   **   ~~~   ** Air System Named = CENTRAL SYSTEM did not converge for mass flow rate
   **   ~~~   ** Check values should be zero. Most Recent values listed first.
   **   ~~~   ** Demand-to-Supply interface mass flow rate check value iteration history trace: 6.545569E-002,6.545569E-002,6.545569E-002,6.545569E-002,6.545569E-002,6.545569E-002,6.545569E-002,6.545569E-002,6.545569E-002,6.545569E-002,
   **   ~~~   ** Supply-to-demand interface deck 1 mass flow rate check value iteration history trace: 6.545569E-002,6.545569E-002,6.545569E-002,6.545569E-002,6.545569E-002,6.545569E-002,6.545569E-002,6.545569E-002,6.545569E-002,6.545569E-002,
   **   ~~~   ** Air System Named = CENTRAL SYSTEM did not converge for energy
   **   ~~~   ** Check values should be zero. Most Recent values listed first.
   **   ~~~   ** Demand-to-Supply interface energy check value iteration history trace: 1297.052925,1297.052925,1297.052925,1297.052925,1297.052925,1297.052925,1297.052925,1297.052925,1297.052925,1297.052924,
   **   ~~~   ** Supply-to-demand interface deck 1 energy check value iteration history trace: 2299.988434,2299.988434,2299.988434,2299.988434,2299.988434,2299.988434,2299.988434,2299.988434,2299.988433,2299.988433,
   ** Warning ** SimHVAC: Maximum iterations (20) exceeded for all HVAC loops, at ANNUAL, 02/12 17:00 - 17:08
   **   ~~~   ** The solution for one or more of the Air Loop HVAC systems did not appear to converge
   **   ~~~   ** Air System Named = CENTRAL SYSTEM did not converge for mass flow rate
   **   ~~~   ** Check values should be zero. Most Recent values listed first.
   **   ~~~   ** Demand-to-Supply interface mass flow rate check value iteration history trace: 6.173053E-002,6.173053E-002,6.173053E-002,6.173053E-002,6.173053E-002,6.173053E-002,6.173053E-002,6.173053E-002,6.173053E-002,6.173053E-002,
   **   ~~~   ** Supply-to-demand interface deck 1 mass flow rate check value iteration history trace: 6.173053E-002,6.173053E-002,6.173053E-002,6.173053E-002,6.173053E-002,6.173053E-002,6.173053E-002,6.173053E-002,6.173053E-002,6.173053E-002,
   **   ~~~   ** Air System Named = CENTRAL SYSTEM did not converge for energy
   **   ~~~   ** Check values should be zero. Most Recent values listed first.
   **   ~~~   ** Demand-to-Supply interface energy check value iteration history trace: 1223.304095,1223.304095,1223.304095,1223.304095,1223.304094,1223.304094,1223.304094,1223.304094,1223.304094,1223.304094,
   **   ~~~   ** Supply-to-demand interface deck 1 energy check value iteration history trace: 2128.430649,2128.430648,2128.430648,2128.430648,2128.430648,2128.430648,2128.430648,2128.430648,2128.430648,2128.430648,
   ** Warning ** SimHVAC: Maximum iterations (20) exceeded for all HVAC loops, at ANNUAL, 02/19 14:00 - 14:15
   **   ~~~   ** The solution for one or more of the Air Loop HVAC systems did not appear to converge
   **   ~~~   ** Air System Named = CENTRAL SYSTEM did not converge for mass flow rate
   **   ~~~   ** Check values should be zero. Most Recent values listed first.
   **   ~~~   ** Demand-to-Supply interface mass flow rate check value iteration history trace: 2.651539E-002,2.651539E-002,2.651539E-002,2.651539E-002,2.651539E-002,2.651539E-002,2.651539E-002,2.651539E-002,2.651539E-002,2.651539E-002,
   **   ~~~   ** Supply-to-demand interface deck 1 mass flow rate check value iteration history trace: 2.651539E-002,2.651539E-002,2.651539E-002,2.651539E-002,2.651539E-002,2.651539E-002,2.651539E-002,2.651539E-002,2.651539E-002,2.651539E-002,
   **   ~~~   ** Air System Named = CENTRAL SYSTEM did not converge for energy
   **   ~~~   ** Check values should be zero. Most Recent values listed first.
   **   ~~~   ** Demand-to-Supply interface energy check value iteration history trace: 525.355868,525.355868,525.355868,525.355868,525.355868,525.355868,525.355868,525.355868,525.355868,525.355868,
   **   ~~~   ** Supply-to-demand interface deck 1 energy check value iteration history trace: 915.696306,915.696306,915.696306,915.696306,915.696306,915.696306,915.696305,915.696305,915.696305,915.696305,
   ** Warning ** SimHVAC: Maximum iterations (20) exceeded for all HVAC loops, at ANNUAL, 03/29 07:33 - 07:35
   **   ~~~   ** The solution for one or more of the Air Loop HVAC systems did not appear to converge
   **   ~~~   ** Air System Named = CENTRAL SYSTEM did not converge for mass flow rate
   **   ~~~   ** Check values should be zero. Most Recent values listed first.
   **   ~~~   ** Demand-to-Supply interface mass flow rate check value iteration history trace: 6.089241E-002,6.089241E-002,6.089241E-002,6.089241E-002,6.089241E-002,6.089241E-002,6.089241E-002,6.089241E-002,6.089241E-002,6.089241E-002,
   **   ~~~   ** Supply-to-demand interface deck 1 mass flow rate check value iteration history trace: 6.089241E-002,6.089241E-002,6.089241E-002,6.089241E-002,6.089241E-002,6.089241E-002,6.089241E-002,6.089241E-002,6.089241E-002,6.089241E-002,
   **   ~~~   ** Air System Named = CENTRAL SYSTEM did not converge for energy
   **   ~~~   ** Check values should be zero. Most Recent values listed first.
   **   ~~~   ** Demand-to-Supply interface energy check value iteration history trace: 1199.654572,1199.654572,1199.654572,1199.654572,1199.654572,1199.654572,1199.654572,1199.654572,1199.654572,1199.654572,
   **   ~~~   ** Supply-to-demand interface deck 1 energy check value iteration history trace: 2212.712406,2212.712405,2212.712405,2212.712405,2212.712405,2212.712405,2212.712405,2212.712405,2212.712405,2212.712405,
   ** Warning ** SimHVAC: Maximum iterations (20) exceeded for all HVAC loops, at ANNUAL, 04/10 07:56 - 08:00
   **   ~~~   ** The solution for one or more of the Air Loop HVAC systems did not appear to converge
   **   ~~~   ** Air System Named = CENTRAL SYSTEM did not converge for mass flow rate
   **   ~~~   ** Check values should be zero. Most Recent values listed first.
   **   ~~~   ** Demand-to-Supply interface mass flow rate check value iteration history trace: 7.118883E-002,7.118883E-002,7.118883E-002,7.118883E-002,7.118883E-002,7.118883E-002,7.118883E-002,7.118883E-002,7.118883E-002,7.118883E-002,
   **   ~~~   ** Supply-to-demand interface deck 1 mass flow rate check value iteration history trace: 7.118883E-002,7.118883E-002,7.118883E-002,7.118883E-002,7.118883E-002,7.118883E-002,7.118883E-002,7.118883E-002,7.118883E-002,7.118883E-002,
   **   ~~~   ** Air System Named = CENTRAL SYSTEM did not converge for energy
   **   ~~~   ** Check values should be zero. Most Recent values listed first.
   **   ~~~   ** Demand-to-Supply interface energy check value iteration history trace: 1408.148162,1408.148162,1408.148162,1408.148162,1408.148161,1408.148161,1408.148161,1408.148161,1408.148161,1408.148161,
   **   ~~~   ** Supply-to-demand interface deck 1 energy check value iteration history trace: 2508.047038,2508.047038,2508.047038,2508.047037,2508.047037,2508.047037,2508.047037,2508.047037,2508.047037,2508.047037,
   ** Warning ** SimHVAC: Maximum iterations (20) exceeded for all HVAC loops, at ANNUAL, 04/17 08:05 - 08:08
   **   ~~~   ** The solution for one or more of the Air Loop HVAC systems did not appear to converge
   **   ~~~   ** Air System Named = CENTRAL SYSTEM did not converge for mass flow rate
   **   ~~~   ** Check values should be zero. Most Recent values listed first.
   **   ~~~   ** Demand-to-Supply interface mass flow rate check value iteration history trace: 6.934303E-002,6.934303E-002,6.934303E-002,6.934303E-002,6.934303E-002,6.934303E-002,6.934303E-002,6.934303E-002,6.934303E-002,6.934303E-002,
   **   ~~~   ** Supply-to-demand interface deck 1 mass flow rate check value iteration history trace: 6.934303E-002,6.934303E-002,6.934303E-002,6.934303E-002,6.934303E-002,6.934303E-002,6.934303E-002,6.934303E-002,6.934303E-002,6.934303E-002,
   **   ~~~   ** Air System Named = CENTRAL SYSTEM did not converge for energy
   **   ~~~   ** Check values should be zero. Most Recent values listed first.
   **   ~~~   ** Demand-to-Supply interface energy check value iteration history trace: 1374.199461,1374.199461,1374.199461,1374.199461,1374.199461,1374.199461,1374.199461,1374.199461,1374.199461,1374.199461,
   **   ~~~   ** Supply-to-demand interface deck 1 energy check value iteration history trace: 2404.486354,2404.486354,2404.486354,2404.486354,2404.486354,2404.486354,2404.486354,2404.486353,2404.486353,2404.486353,
   ** Warning ** SimHVAC: Maximum iterations (20) exceeded for all HVAC loops, at ANNUAL, 04/26 08:28 - 08:30
   **   ~~~   ** The solution for one or more of the Air Loop HVAC systems did not appear to converge
   **   ~~~   ** Air System Named = CENTRAL SYSTEM did not converge for energy
   **   ~~~   ** Check values should be zero. Most Recent values listed first.
   **   ~~~   ** Demand-to-Supply interface energy check value iteration history trace: 65.205178,65.205178,65.205178,65.205178,65.205178,65.205178,65.205178,65.205178,65.205178,65.205178,
   **   ~~~   ** Supply-to-demand interface deck 1 energy check value iteration history trace: 22.587673,22.587673,22.587673,22.587673,22.587673,22.587673,22.587673,22.587673,22.587673,22.587673,
   ** Warning ** SimHVAC: Maximum iterations (20) exceeded for all HVAC loops, at ANNUAL, 04/26 08:34 - 08:35
   **   ~~~   ** The solution for one or more of the Air Loop HVAC systems did not appear to converge
   **   ~~~   ** Air System Named = CENTRAL SYSTEM did not converge for mass flow rate
   **   ~~~   ** Check values should be zero. Most Recent values listed first.
   **   ~~~   ** Demand-to-Supply interface mass flow rate check value iteration history trace: 3.142590E-002,3.142590E-002,3.142590E-002,3.142590E-002,3.142590E-002,3.142590E-002,3.142590E-002,3.142590E-002,3.142590E-002,3.142590E-002,
   **   ~~~   ** Supply-to-demand interface deck 1 mass flow rate check value iteration history trace: 3.142590E-002,3.142590E-002,3.142590E-002,3.142590E-002,3.142590E-002,3.142590E-002,3.142590E-002,3.142590E-002,3.142590E-002,3.142590E-002,
   **   ~~~   ** Air System Named = CENTRAL SYSTEM did not converge for energy
   **   ~~~   ** Check values should be zero. Most Recent values listed first.
   **   ~~~   ** Demand-to-Supply interface energy check value iteration history trace: 736.658776,736.658776,736.658777,736.658777,736.658777,736.658777,736.658777,736.658777,736.658777,736.658777,
   **   ~~~   ** Supply-to-demand interface deck 1 energy check value iteration history trace: 255.449094,255.449094,255.449094,255.449094,255.449094,255.449094,255.449094,255.449094,255.449094,255.449094,
   ** Warning ** SimHVAC: Maximum iterations (20) exceeded for all HVAC loops, at ANNUAL, 04/27 08:53 - 08:55
   **   ~~~   ** The solution for one or more of the Air Loop HVAC systems did not appear to converge
   **   ~~~   ** Air System Named = CENTRAL SYSTEM did not converge for mass flow rate
   **   ~~~   ** Check values should be zero. Most Recent values listed first.
   **   ~~~   ** Demand-to-Supply interface mass flow rate check value iteration history trace: 0.406448,0.406448,0.406448,0.406448,0.406448,0.406448,0.406448,0.406448,0.406448,0.406448,
   **   ~~~   ** Supply-to-demand interface deck 1 mass flow rate check value iteration history trace: 0.406448,0.406448,0.406448,0.406448,0.406448,0.406448,0.406448,0.406448,0.406448,0.406448,
   **   ~~~   ** Air System Named = CENTRAL SYSTEM did not converge for energy
   **   ~~~   ** Check values should be zero. Most Recent values listed first.
   **   ~~~   ** Demand-to-Supply interface energy check value iteration history trace: 9704.614720,9704.614721,9704.614722,9704.614724,9704.614725,9704.614726,9704.614728,9704.614729,9704.614730,9704.614731,
   **   ~~~   ** Supply-to-demand interface deck 1 energy check value iteration history trace: 3485.813685,3485.813685,3485.813686,3485.813686,3485.813687,3485.813687,3485.813688,3485.813688,3485.813689,3485.813689,
   ** Warning ** SimHVAC: Maximum iterations (20) exceeded for all HVAC loops, at ANNUAL, 04/27 23:55 - 24:00
   **   ~~~   ** The solution for one or more of the Air Loop HVAC systems did not appear to converge
   **   ~~~   ** Air System Named = CENTRAL SYSTEM did not converge for mass flow rate
   **   ~~~   ** Check values should be zero. Most Recent values listed first.
   **   ~~~   ** Demand-to-Supply interface mass flow rate check value iteration history trace: 0.147844,0.147844,0.147844,0.147844,0.147844,0.147844,0.147844,0.147844,0.147844,0.147844,
   **   ~~~   ** Supply-to-demand interface deck 1 mass flow rate check value iteration history trace: 0.147844,0.147844,0.147844,0.147844,0.147844,0.147844,0.147844,0.147844,0.147844,0.147844,
   **   ~~~   ** Air System Named = CENTRAL SYSTEM did not converge for energy
   **   ~~~   ** Check values should be zero. Most Recent values listed first.
   **   ~~~   ** Demand-to-Supply interface energy check value iteration history trace: 3718.848055,3718.848056,3718.848056,3718.848057,3718.848057,3718.848058,3718.848059,3718.848059,3718.848060,3718.848061,
   **   ~~~   ** Supply-to-demand interface deck 1 energy check value iteration history trace: 1463.707279,1463.707279,1463.707280,1463.707280,1463.707280,1463.707280,1463.707281,1463.707281,1463.707281,1463.707281,
   ************* Simulation Error Summary *************
   ** Warning ** The following Report Variables were requested but not generated -- check.rdd file
   **   ~~~   ** Either the IDF did not contain these elements, the variable name is misspelled,
   **   ~~~   ** or the requested variable is an advanced output which requires Output : Diagnostics, DisplayAdvancedReportVariables;
   ************* Key=*, VarName=BASEBOARD TOTAL HEATING ENERGY, Frequency=
   ************* Key=*, VarName=WATER HEATER NATURALGAS ENERGY, Frequency=
   ************* Key=*, VarName=COOLING COIL TOTAL HEATING ENERGY, Frequency=
   ************* There are 34 unused schedules in input.
   ************* There are 388 unused week schedules in input.
   ************* There are 396 unused day schedules in input.
   ************* Use Output:Diagnostics,DisplayUnusedSchedules; to see them.
   *************
   ************* ===== Recurring Error Summary =====
   ************* The following recurring error messages occurred.
   *************
   *************  ** Warning ** "TOTAL HOT WATER LOAD" - Target water temperature should be less than or equal to the hot water temperature error continues...
   *************  **   ~~~   **   This error occurred 155535 total times;
   *************  **   ~~~   **   during Warmup 0 times;
   *************  **   ~~~   **   during Sizing 0 times.
   *************  **   ~~~   **   Max=11.206168  Min=4.584676E-004
   *************
   *************  ** Warning ** SimHVAC: Exceeding Maximum iterations for all HVAC loops, during ANNUAL continues
   *************  **   ~~~   **   This error occurred 7 total times;
   *************  **   ~~~   **   during Warmup 0 times;
   *************  **   ~~~   **   during Sizing 0 times.
   *************
   *************
   ************* ===== Final Error Summary =====
   ************* The following error categories occurred.  Consider correcting or noting.
   ************* Nominally Unused Constructions
   ************* ..The nominally unused constructions warning is provided to alert you to potential conditions that can cause
   ************* ..extra time during simulation. Each construction is calculated by the algorithm indicated in the HeatBalanceAlgorithm
   ************* ..object. You may remove the constructions indicated (when you use the DisplayExtraWarnings option).
   *************
   ************* EnergyPlus Warmup Error Summary. During Warmup: 1 Warning; 0 Severe Errors.
   ************* EnergyPlus Sizing Error Summary. During Sizing: 4 Warning; 0 Severe Errors.
   ************* EnergyPlus Completed Successfully-- 155574 Warning; 0 Severe Errors; Elapsed Time=00hr 01min 55.39sec
