Program Version,EnergyPlus, Version 22.2.0-c249759bad, YMD=2023.09.01 14:43,
   ************* Beginning Zone Sizing Calculations
   ** Warning ** ProcessScheduleInput: Schedule:Constant="ALWAYS ON DISCRETE", Schedule Type Limits Name="ONOFF" not found -- will not be validated
   ** Warning ** Foundation:Kiva="KIVA FOUNDATION", no Interior Horizontal Insulation Material Name defined
   **   ~~~   ** Interior Horizontal Insulation Depth will not be used.
   ** Warning ** CheckUsedConstructions: There are 15 nominally unused constructions in input.
   **   ~~~   ** Each Unused construction is shown.
   ************* Construction=INTERIOR FLOOR
   ************* Construction=INTERIOR WINDOW
   ************* Construction=EXTERIOR DOOR
   ************* Construction=INTERIOR DOOR
   ************* Construction=GABLE CONSTRUCTION
   ************* Construction=CRAWL_FLOOR
   ************* Construction=INSULATED PIPE
   ************* Construction=PLAIN PIPE
   ************* Construction=TDD PIPE
   ************* Construction=TDD DOME
   ************* Construction=TDD DIFFUSER
   ************* Construction=CRAWL WALL
   ************* Construction=CEILING-FLOOR-LAYER
   ************* Construction=SLAB CONSTRUCTION W FULL R10 INSULATION
   ************* Construction=SLAB CONSTRUCTION W FULL R5 INSULATION
   ** Warning ** GetDXCoils: Coil:Heating:DX:SingleSpeed="DX_HEATING_COIL" curve values
   **   ~~~   ** ... Defrost Energy Input Ratio Function of Temperature Curve Name = DEFROSTEIR output is not equal to 1.0 (+ or - 10%) at rated conditions.
   **   ~~~   ** ... Curve output at rated conditions = 0.152
   ************* Beginning System Sizing Calculations
   ************* Beginning Plant Sizing Calculations
   ** Warning ** SizeDXCoil Coil:Cooling:DX:SingleSpeed DX_COOLING_COIL
   **   ~~~   ** ...Gross Rated Total Cooling Capacity [W] will be limited by the maximum rated volume flow per rated total capacity ratio.
   **   ~~~   ** ...DX coil volume flow rate ( m3/s ) = 0.367553
   **   ~~~   ** ...Requested capacity ( W ) = 5648.219
   **   ~~~   ** ...Requested flow/capacity ratio ( m3/s/W ) = 6.507E-005
   **   ~~~   ** ...Maximum flow/capacity ratio ( m3/s/W ) = 6.041E-005
   **   ~~~   ** ...Adjusted capacity ( W ) = 6084.314
   ** Warning ** Coil:WaterHeating:AirToWaterHeatPump:Wrapped "HEAT PUMP WATER HEATER EVAPORATOR": Rated air volume flow rate per watt of rated total water heating capacity is out of range
   **   ~~~   ** Min Rated Vol Flow Per Watt=[4.027E-005], Rated Vol Flow Per Watt=[1.386E-004], Max Rated Vol Flow Per Watt=[8.056E-005]. See Input-Output Reference Manual for valid range.
   ** Warning ** Water heater = WATER HEATER TANK:  Recovery Efficiency and Energy Factor could not be calculated during the test for standard ratings
   **   ~~~   ** Setpoint was never recovered and/or heater never turned on
   ** Warning ** Check input. Pump nominal power or motor efficiency is set to 0, for pump=MAINS PRESSURE
   ** Warning ** Output:Meter: invalid Key Name="ELECTRIC_RANGE:INTERIOREQUIPMENT:ELECTRICITY" - not found.
   ** Warning ** Output:Meter: invalid Key Name="ELECTRIC_DRYER:INTERIOREQUIPMENT:ELECTRICITY" - not found.
   ** Warning ** Output:Meter: invalid Key Name="HEATRECOVERY:ELECTRICITY" - not found.
   ** Warning ** Output:Meter: invalid Key Name="HEATING:NATURALGAS" - not found.
   ** Warning ** Output:Meter: invalid Key Name="WATERSYSTEMS:NATURALGAS" - not found.
   ** Warning ** Output:Meter: invalid Key Name="PROPANE:FACILITY" - not found.
   ** Warning ** Output:Meter: invalid Key Name="HEATING:PROPANE" - not found.
   ************* Testing Individual Branch Integrity
   ************* All Branches passed integrity testing
   ************* Testing Individual Supply Air Path Integrity
   ************* All Supply Air Paths passed integrity testing
   ************* Testing Individual Return Air Path Integrity
   ************* All Return Air Paths passed integrity testing
   ************* No node connection errors were found.
   ************* Beginning Simulation
   ** Warning ** AirflowNetwork::Solver::validate_distribution: Heat pump water heater is simulated along with an AirflowNetwork but is not included in the AirflowNetwork.
   ** Warning ** CalcEquipmentFlowRates: "TOTAL HOT WATER LOAD" - Target water temperature is greater than the hot water temperature by (1.61 C)
   **   ~~~   **  Environment=EXTREME_WINTER, at Simulation time=01/15 06:00 - 06:15
   **   ~~~   ** ...target water temperature     = 53.33 C
   **   ~~~   ** ...hot water temperature        = 51.73 C
   **   ~~~   ** ...Target water temperature should be less than or equal to the hot water temperature. Verify temperature setpoints and schedules.
   ** Warning ** SimHVAC: Maximum iterations (20) exceeded for all HVAC loops, at ANNUAL, 01/17 08:30 - 08:35
   **   ~~~   ** The solution for one or more of the Air Loop HVAC systems did not appear to converge
   **   ~~~   ** Air System Named = CENTRAL SYSTEM did not converge for mass flow rate
   **   ~~~   ** Check values should be zero. Most Recent values listed first.
   **   ~~~   ** Demand-to-Supply interface mass flow rate check value iteration history trace: 7.573958E-002,7.573958E-002,7.573958E-002,7.573958E-002,7.573958E-002,7.573958E-002,7.573958E-002,7.573958E-002,7.573958E-002,7.573958E-002,
   **   ~~~   ** Supply-to-demand interface deck 1 mass flow rate check value iteration history trace: 7.573958E-002,7.573958E-002,7.573958E-002,7.573958E-002,7.573958E-002,7.573958E-002,7.573958E-002,7.573958E-002,7.573958E-002,7.573958E-002,
   **   ~~~   ** Air System Named = CENTRAL SYSTEM did not converge for energy
   **   ~~~   ** Check values should be zero. Most Recent values listed first.
   **   ~~~   ** Demand-to-Supply interface energy check value iteration history trace: 1500.790697,1500.790697,1500.790697,1500.790697,1500.790697,1500.790697,1500.790697,1500.790697,1500.790697,1500.790697,
   **   ~~~   ** Supply-to-demand interface deck 1 energy check value iteration history trace: 2616.842992,2616.842992,2616.842992,2616.842992,2616.842992,2616.842992,2616.842992,2616.842991,2616.842991,2616.842991,
   ** Warning ** SimHVAC: Maximum iterations (20) exceeded for all HVAC loops, at ANNUAL, 03/18 19:35 - 19:40
   **   ~~~   ** The solution for one or more of the Air Loop HVAC systems did not appear to converge
   **   ~~~   ** Air System Named = CENTRAL SYSTEM did not converge for mass flow rate
   **   ~~~   ** Check values should be zero. Most Recent values listed first.
   **   ~~~   ** Demand-to-Supply interface mass flow rate check value iteration history trace: 0.134094,0.134094,0.134094,0.134094,0.134094,0.134094,0.134094,0.134094,0.134094,0.134094,
   **   ~~~   ** Supply-to-demand interface deck 1 mass flow rate check value iteration history trace: 0.134094,0.134094,0.134094,0.134094,0.134094,0.134094,0.134094,0.134094,0.134094,0.134094,
   **   ~~~   ** Air System Named = CENTRAL SYSTEM did not converge for energy
   **   ~~~   ** Check values should be zero. Most Recent values listed first.
   **   ~~~   ** Demand-to-Supply interface energy check value iteration history trace: 3145.139848,3145.139848,3145.139848,3145.139848,3145.139849,3145.139849,3145.139849,3145.139849,3145.139849,3145.139850,
   **   ~~~   ** Supply-to-demand interface deck 1 energy check value iteration history trace: 1558.137642,1558.137642,1558.137642,1558.137642,1558.137642,1558.137643,1558.137643,1558.137643,1558.137643,1558.137643,
   ** Warning ** SimHVAC: Maximum iterations (20) exceeded for all HVAC loops, at ANNUAL, 03/26 21:38 - 21:45
   **   ~~~   ** The solution for one or more of the Air Loop HVAC systems did not appear to converge
   **   ~~~   ** Air System Named = CENTRAL SYSTEM did not converge for mass flow rate
   **   ~~~   ** Check values should be zero. Most Recent values listed first.
   **   ~~~   ** Demand-to-Supply interface mass flow rate check value iteration history trace: 0.161625,0.161625,0.161625,0.161625,0.161625,0.161625,0.161625,0.161625,0.161625,0.161625,
   **   ~~~   ** Supply-to-demand interface deck 1 mass flow rate check value iteration history trace: 0.161625,0.161625,0.161625,0.161625,0.161625,0.161625,0.161625,0.161625,0.161625,0.161625,
   **   ~~~   ** Air System Named = CENTRAL SYSTEM did not converge for energy
   **   ~~~   ** Check values should be zero. Most Recent values listed first.
   **   ~~~   ** Demand-to-Supply interface energy check value iteration history trace: 3830.206837,3830.206837,3830.206837,3830.206837,3830.206838,3830.206838,3830.206838,3830.206838,3830.206838,3830.206839,
   **   ~~~   ** Supply-to-demand interface deck 1 energy check value iteration history trace: 1908.400235,1908.400235,1908.400235,1908.400235,1908.400236,1908.400236,1908.400236,1908.400236,1908.400236,1908.400236,
   ** Warning ** SimHVAC: Maximum iterations (20) exceeded for all HVAC loops, at ANNUAL, 11/28 08:00 - 08:08
   **   ~~~   ** The solution for one or more of the Air Loop HVAC systems did not appear to converge
   **   ~~~   ** Air System Named = CENTRAL SYSTEM did not converge for mass flow rate
   **   ~~~   ** Check values should be zero. Most Recent values listed first.
   **   ~~~   ** Demand-to-Supply interface mass flow rate check value iteration history trace: 6.471754E-002,6.471754E-002,6.471754E-002,6.471754E-002,6.471754E-002,6.471754E-002,6.471754E-002,6.471754E-002,6.471754E-002,6.471754E-002,
   **   ~~~   ** Supply-to-demand interface deck 1 mass flow rate check value iteration history trace: 6.471754E-002,6.471754E-002,6.471754E-002,6.471754E-002,6.471754E-002,6.471754E-002,6.471754E-002,6.471754E-002,6.471754E-002,6.471754E-002,
   **   ~~~   ** Air System Named = CENTRAL SYSTEM did not converge for energy
   **   ~~~   ** Check values should be zero. Most Recent values listed first.
   **   ~~~   ** Demand-to-Supply interface energy check value iteration history trace: 1280.498162,1280.498162,1280.498162,1280.498162,1280.498162,1280.498162,1280.498162,1280.498162,1280.498162,1280.498162,
   **   ~~~   ** Supply-to-demand interface deck 1 energy check value iteration history trace: 2267.941840,2267.941840,2267.941840,2267.941840,2267.941840,2267.941840,2267.941840,2267.941840,2267.941839,2267.941839,
   ** Warning ** SimHVAC: Maximum iterations (20) exceeded for all HVAC loops, at ANNUAL, 12/05 08:23 - 08:25
   **   ~~~   ** The solution for one or more of the Air Loop HVAC systems did not appear to converge
   **   ~~~   ** Air System Named = CENTRAL SYSTEM did not converge for mass flow rate
   **   ~~~   ** Check values should be zero. Most Recent values listed first.
   **   ~~~   ** Demand-to-Supply interface mass flow rate check value iteration history trace: 7.816471E-002,7.816471E-002,7.816471E-002,7.816471E-002,7.816471E-002,7.816471E-002,7.816471E-002,7.816471E-002,7.816471E-002,7.816471E-002,
   **   ~~~   ** Supply-to-demand interface deck 1 mass flow rate check value iteration history trace: 7.816471E-002,7.816471E-002,7.816471E-002,7.816471E-002,7.816471E-002,7.816471E-002,7.816471E-002,7.816471E-002,7.816471E-002,7.816471E-002,
   **   ~~~   ** Air System Named = CENTRAL SYSTEM did not converge for energy
   **   ~~~   ** Check values should be zero. Most Recent values listed first.
   **   ~~~   ** Demand-to-Supply interface energy check value iteration history trace: 1538.530196,1538.530196,1538.530196,1538.530196,1538.530196,1538.530196,1538.530196,1538.530196,1538.530196,1538.530196,
   **   ~~~   ** Supply-to-demand interface deck 1 energy check value iteration history trace: 2714.144345,2714.144345,2714.144345,2714.144345,2714.144345,2714.144345,2714.144345,2714.144344,2714.144344,2714.144344,
   ** Warning ** SimHVAC: Maximum iterations (20) exceeded for all HVAC loops, at ANNUAL, 12/11 14:00 - 14:15
   **   ~~~   ** The solution for one or more of the Air Loop HVAC systems did not appear to converge
   **   ~~~   ** Air System Named = CENTRAL SYSTEM did not converge for mass flow rate
   **   ~~~   ** Check values should be zero. Most Recent values listed first.
   **   ~~~   ** Demand-to-Supply interface mass flow rate check value iteration history trace: 0.122521,0.122521,0.122521,0.122521,0.122521,0.122521,0.122521,0.122521,0.122521,0.122521,
   **   ~~~   ** Supply-to-demand interface deck 1 mass flow rate check value iteration history trace: 0.122521,0.122521,0.122521,0.122521,0.122521,0.122521,0.122521,0.122521,0.122521,0.122521,
   **   ~~~   ** Air System Named = CENTRAL SYSTEM did not converge for energy
   **   ~~~   ** Check values should be zero. Most Recent values listed first.
   **   ~~~   ** Demand-to-Supply interface energy check value iteration history trace: 2919.748197,2919.748197,2919.748198,2919.748198,2919.748198,2919.748198,2919.748198,2919.748199,2919.748199,2919.748199,
   **   ~~~   ** Supply-to-demand interface deck 1 energy check value iteration history trace: 1635.504995,1635.504995,1635.504995,1635.504995,1635.504995,1635.504995,1635.504996,1635.504996,1635.504996,1635.504996,
   ** Warning ** SimHVAC: Maximum iterations (20) exceeded for all HVAC loops, at ANNUAL, 12/11 18:23 - 18:30
   **   ~~~   ** The solution for one or more of the Air Loop HVAC systems did not appear to converge
   **   ~~~   ** Air System Named = CENTRAL SYSTEM did not converge for mass flow rate
   **   ~~~   ** Check values should be zero. Most Recent values listed first.
   **   ~~~   ** Demand-to-Supply interface mass flow rate check value iteration history trace: 0.124566,0.124566,0.124566,0.124566,0.124566,0.124566,0.124566,0.124566,0.124566,0.124566,
   **   ~~~   ** Supply-to-demand interface deck 1 mass flow rate check value iteration history trace: 0.124566,0.124566,0.124566,0.124566,0.124566,0.124566,0.124566,0.124566,0.124566,0.124566,
   **   ~~~   ** Air System Named = CENTRAL SYSTEM did not converge for energy
   **   ~~~   ** Check values should be zero. Most Recent values listed first.
   **   ~~~   ** Demand-to-Supply interface energy check value iteration history trace: 2968.637521,2968.637522,2968.637523,2968.637523,2968.637524,2968.637525,2968.637525,2968.637526,2968.637527,2968.637527,
   **   ~~~   ** Supply-to-demand interface deck 1 energy check value iteration history trace: 1559.457535,1559.457535,1559.457536,1559.457536,1559.457536,1559.457537,1559.457537,1559.457537,1559.457538,1559.457538,
   ** Warning ** SimHVAC: Maximum iterations (20) exceeded for all HVAC loops, at ANNUAL, 12/11 20:25 - 20:30
   **   ~~~   ** The solution for one or more of the Air Loop HVAC systems did not appear to converge
   **   ~~~   ** Air System Named = CENTRAL SYSTEM did not converge for mass flow rate
   **   ~~~   ** Check values should be zero. Most Recent values listed first.
   **   ~~~   ** Demand-to-Supply interface mass flow rate check value iteration history trace: 0.350266,0.350266,0.350266,0.350266,0.350266,0.350266,0.350266,0.350266,0.350266,0.350266,
   **   ~~~   ** Supply-to-demand interface deck 1 mass flow rate check value iteration history trace: 0.350266,0.350266,0.350266,0.350266,0.350266,0.350266,0.350266,0.350266,0.350266,0.350266,
   **   ~~~   ** Air System Named = CENTRAL SYSTEM did not converge for energy
   **   ~~~   ** Check values should be zero. Most Recent values listed first.
   **   ~~~   ** Demand-to-Supply interface energy check value iteration history trace: 8443.328683,8443.328685,8443.328687,8443.328689,8443.328691,8443.328693,8443.328695,8443.328697,8443.328699,8443.328701,
   **   ~~~   ** Supply-to-demand interface deck 1 energy check value iteration history trace: 4426.043259,4426.043260,4426.043261,4426.043262,4426.043263,4426.043264,4426.043265,4426.043266,4426.043267,4426.043268,
   ** Warning ** SimHVAC: Maximum iterations (20) exceeded for all HVAC loops, at ANNUAL, 12/19 08:35 - 08:38
   **   ~~~   ** The solution for one or more of the Air Loop HVAC systems did not appear to converge
   **   ~~~   ** Air System Named = CENTRAL SYSTEM did not converge for mass flow rate
   **   ~~~   ** Check values should be zero. Most Recent values listed first.
   **   ~~~   ** Demand-to-Supply interface mass flow rate check value iteration history trace: 8.182988E-002,8.182988E-002,8.182988E-002,8.182988E-002,8.182988E-002,8.182988E-002,8.182988E-002,8.182988E-002,8.182988E-002,8.182988E-002,
   **   ~~~   ** Supply-to-demand interface deck 1 mass flow rate check value iteration history trace: 8.182988E-002,8.182988E-002,8.182988E-002,8.182988E-002,8.182988E-002,8.182988E-002,8.182988E-002,8.182988E-002,8.182988E-002,8.182988E-002,
   **   ~~~   ** Air System Named = CENTRAL SYSTEM did not converge for energy
   **   ~~~   ** Check values should be zero. Most Recent values listed first.
   **   ~~~   ** Demand-to-Supply interface energy check value iteration history trace: 1617.742319,1617.742318,1617.742318,1617.742318,1617.742318,1617.742318,1617.742318,1617.742318,1617.742318,1617.742318,
   **   ~~~   ** Supply-to-demand interface deck 1 energy check value iteration history trace: 2755.566041,2755.566041,2755.566041,2755.566041,2755.566041,2755.566041,2755.566040,2755.566040,2755.566040,2755.566040,
   ************* Simulation Error Summary *************
   ** Warning ** The following Report Variables were requested but not generated -- check.rdd file
   **   ~~~   ** Either the IDF did not contain these elements, the variable name is misspelled,
   **   ~~~   ** or the requested variable is an advanced output which requires Output : Diagnostics, DisplayAdvancedReportVariables;
   ************* Key=*, VarName=BASEBOARD TOTAL HEATING ENERGY, Frequency=
   ************* Key=*, VarName=WATER HEATER NATURALGAS ENERGY, Frequency=
   ************* Key=*, VarName=COOLING COIL TOTAL HEATING ENERGY, Frequency=
   ************* There are 34 unused schedules in input.
   ************* There are 388 unused week schedules in input.
   ************* There are 396 unused day schedules in input.
   ************* Use Output:Diagnostics,DisplayUnusedSchedules; to see them.
   *************
   ************* ===== Recurring Error Summary =====
   ************* The following recurring error messages occurred.
   *************
   *************  ** Warning ** "TOTAL HOT WATER LOAD" - Target water temperature should be less than or equal to the hot water temperature error continues...
   *************  **   ~~~   **   This error occurred 121843 total times;
   *************  **   ~~~   **   during Warmup 0 times;
   *************  **   ~~~   **   during Sizing 0 times.
   *************  **   ~~~   **   Max=7.604166  Min=1.364211E-004
   *************
   *************
   ************* ===== Final Error Summary =====
   ************* The following error categories occurred.  Consider correcting or noting.
   ************* Nominally Unused Constructions
   ************* ..The nominally unused constructions warning is provided to alert you to potential conditions that can cause
   ************* ..extra time during simulation. Each construction is calculated by the algorithm indicated in the HeatBalanceAlgorithm
   ************* ..object. You may remove the constructions indicated (when you use the DisplayExtraWarnings option).
   *************
   ************* EnergyPlus Warmup Error Summary. During Warmup: 1 Warning; 0 Severe Errors.
   ************* EnergyPlus Sizing Error Summary. During Sizing: 4 Warning; 0 Severe Errors.
   ************* EnergyPlus Completed Successfully-- 121870 Warning; 0 Severe Errors; Elapsed Time=00hr 06min 28.39sec
