Program Version,EnergyPlus, Version 22.2.0-c249759bad, YMD=2023.09.01 15:02,
   ************* Beginning Zone Sizing Calculations
   ** Warning ** ProcessScheduleInput: Schedule:Constant="ALWAYS ON DISCRETE", Schedule Type Limits Name="ONOFF" not found -- will not be validated
   ** Warning ** Foundation:Kiva="KIVA FOUNDATION", no Interior Horizontal Insulation Material Name defined
   **   ~~~   ** Interior Horizontal Insulation Depth will not be used.
   ** Warning ** CheckUsedConstructions: There are 15 nominally unused constructions in input.
   **   ~~~   ** Each Unused construction is shown.
   ************* Construction=INTERIOR FLOOR
   ************* Construction=INTERIOR WINDOW
   ************* Construction=EXTERIOR DOOR
   ************* Construction=INTERIOR DOOR
   ************* Construction=GABLE CONSTRUCTION
   ************* Construction=CRAWL_FLOOR
   ************* Construction=INSULATED PIPE
   ************* Construction=PLAIN PIPE
   ************* Construction=TDD PIPE
   ************* Construction=TDD DOME
   ************* Construction=TDD DIFFUSER
   ************* Construction=CRAWL WALL
   ************* Construction=CEILING-FLOOR-LAYER
   ************* Construction=SLAB CONSTRUCTION W FULL R10 INSULATION
   ************* Construction=SLAB CONSTRUCTION W FULL R5 INSULATION
   ** Warning ** GetDXCoils: Coil:Heating:DX:SingleSpeed="DX_HEATING_COIL" curve values
   **   ~~~   ** ... Defrost Energy Input Ratio Function of Temperature Curve Name = DEFROSTEIR output is not equal to 1.0 (+ or - 10%) at rated conditions.
   **   ~~~   ** ... Curve output at rated conditions = 0.152
   ************* Beginning System Sizing Calculations
   ************* Beginning Plant Sizing Calculations
   ** Warning ** SizeDXCoil Coil:Cooling:DX:SingleSpeed DX_COOLING_COIL
   **   ~~~   ** ...Gross Rated Total Cooling Capacity [W] will be limited by the maximum rated volume flow per rated total capacity ratio.
   **   ~~~   ** ...DX coil volume flow rate ( m3/s ) = 0.426206
   **   ~~~   ** ...Requested capacity ( W ) = 6621.459
   **   ~~~   ** ...Requested flow/capacity ratio ( m3/s/W ) = 6.436E-005
   **   ~~~   ** ...Maximum flow/capacity ratio ( m3/s/W ) = 6.041E-005
   **   ~~~   ** ...Adjusted capacity ( W ) = 7055.229
   ** Warning ** Coil:WaterHeating:AirToWaterHeatPump:Wrapped "HEAT PUMP WATER HEATER EVAPORATOR": Rated air volume flow rate per watt of rated total water heating capacity is out of range
   **   ~~~   ** Min Rated Vol Flow Per Watt=[4.027E-005], Rated Vol Flow Per Watt=[1.386E-004], Max Rated Vol Flow Per Watt=[8.056E-005]. See Input-Output Reference Manual for valid range.
   ** Warning ** Water heater = WATER HEATER TANK:  Recovery Efficiency and Energy Factor could not be calculated during the test for standard ratings
   **   ~~~   ** Setpoint was never recovered and/or heater never turned on
   ** Warning ** Check input. Pump nominal power or motor efficiency is set to 0, for pump=MAINS PRESSURE
   ** Warning ** Output:Meter: invalid Key Name="ELECTRIC_RANGE:INTERIOREQUIPMENT:ELECTRICITY" - not found.
   ** Warning ** Output:Meter: invalid Key Name="ELECTRIC_DRYER:INTERIOREQUIPMENT:ELECTRICITY" - not found.
   ** Warning ** Output:Meter: invalid Key Name="HEATRECOVERY:ELECTRICITY" - not found.
   ** Warning ** Output:Meter: invalid Key Name="HEATING:NATURALGAS" - not found.
   ** Warning ** Output:Meter: invalid Key Name="WATERSYSTEMS:NATURALGAS" - not found.
   ** Warning ** Output:Meter: invalid Key Name="PROPANE:FACILITY" - not found.
   ** Warning ** Output:Meter: invalid Key Name="HEATING:PROPANE" - not found.
   ************* Testing Individual Branch Integrity
   ************* All Branches passed integrity testing
   ************* Testing Individual Supply Air Path Integrity
   ************* All Supply Air Paths passed integrity testing
   ************* Testing Individual Return Air Path Integrity
   ************* All Return Air Paths passed integrity testing
   ************* No node connection errors were found.
   ************* Beginning Simulation
   ** Warning ** AirflowNetwork::Solver::validate_distribution: Heat pump water heater is simulated along with an AirflowNetwork but is not included in the AirflowNetwork.
   ** Warning ** CalcEquipmentFlowRates: "TOTAL HOT WATER LOAD" - Target water temperature is greater than the hot water temperature by (1.68 C)
   **   ~~~   **  Environment=EXTREME_WINTER, at Simulation time=01/20 06:00 - 06:15
   **   ~~~   ** ...target water temperature     = 53.33 C
   **   ~~~   ** ...hot water temperature        = 51.66 C
   **   ~~~   ** ...Target water temperature should be less than or equal to the hot water temperature. Verify temperature setpoints and schedules.
   ** Warning ** SimHVAC: Maximum iterations (20) exceeded for all HVAC loops, at EXTREME_WINTER, 01/20 14:15 - 14:22
   **   ~~~   ** The solution for one or more of the Air Loop HVAC systems did not appear to converge
   **   ~~~   ** Air System Named = CENTRAL SYSTEM did not converge for mass flow rate
   **   ~~~   ** Check values should be zero. Most Recent values listed first.
   **   ~~~   ** Demand-to-Supply interface mass flow rate check value iteration history trace: 1.782884E-002,1.782884E-002,1.782884E-002,1.782884E-002,1.782884E-002,1.782884E-002,1.782884E-002,1.782884E-002,1.782884E-002,1.782884E-002,
   **   ~~~   ** Supply-to-demand interface deck 1 mass flow rate check value iteration history trace: 1.782884E-002,1.782884E-002,1.782884E-002,1.782884E-002,1.782884E-002,1.782884E-002,1.782884E-002,1.782884E-002,1.782884E-002,1.782884E-002,
   **   ~~~   ** Air System Named = CENTRAL SYSTEM did not converge for energy
   **   ~~~   ** Check values should be zero. Most Recent values listed first.
   **   ~~~   ** Demand-to-Supply interface energy check value iteration history trace: 346.251476,346.251476,346.251476,346.251476,346.251476,346.251476,346.251476,346.251476,346.251476,346.251476,
   **   ~~~   ** Supply-to-demand interface deck 1 energy check value iteration history trace: 525.935791,525.935791,525.935791,525.935791,525.935791,525.935791,525.935791,525.935791,525.935791,525.935791,
   ** Warning ** SimHVAC: Maximum iterations (20) exceeded for all HVAC loops, at ANNUAL, 01/08 09:30 - 09:45
   **   ~~~   ** The solution for one or more of the Air Loop HVAC systems did not appear to converge
   **   ~~~   ** Air System Named = CENTRAL SYSTEM did not converge for mass flow rate
   **   ~~~   ** Check values should be zero. Most Recent values listed first.
   **   ~~~   ** Demand-to-Supply interface mass flow rate check value iteration history trace: 6.801195E-002,6.801195E-002,6.801195E-002,6.801195E-002,6.801195E-002,6.801195E-002,6.801195E-002,6.801195E-002,6.801195E-002,6.801195E-002,
   **   ~~~   ** Supply-to-demand interface deck 1 mass flow rate check value iteration history trace: 6.801195E-002,6.801195E-002,6.801195E-002,6.801195E-002,6.801195E-002,6.801195E-002,6.801195E-002,6.801195E-002,6.801195E-002,6.801195E-002,
   **   ~~~   ** Air System Named = CENTRAL SYSTEM did not converge for energy
   **   ~~~   ** Check values should be zero. Most Recent values listed first.
   **   ~~~   ** Demand-to-Supply interface energy check value iteration history trace: 1347.729063,1347.729063,1347.729063,1347.729063,1347.729063,1347.729063,1347.729063,1347.729063,1347.729063,1347.729063,
   **   ~~~   ** Supply-to-demand interface deck 1 energy check value iteration history trace: 2416.399505,2416.399505,2416.399505,2416.399505,2416.399505,2416.399504,2416.399504,2416.399504,2416.399504,2416.399504,
   ** Warning ** SimHVAC: Maximum iterations (20) exceeded for all HVAC loops, at ANNUAL, 01/13 23:15 - 23:22
   **   ~~~   ** The solution for one or more of the Air Loop HVAC systems did not appear to converge
   **   ~~~   ** Air System Named = CENTRAL SYSTEM did not converge for mass flow rate
   **   ~~~   ** Check values should be zero. Most Recent values listed first.
   **   ~~~   ** Demand-to-Supply interface mass flow rate check value iteration history trace: 0.102996,0.102996,0.102996,0.102996,0.102996,0.102996,0.102996,0.102996,0.102996,0.102996,
   **   ~~~   ** Supply-to-demand interface deck 1 mass flow rate check value iteration history trace: 0.102996,0.102996,0.102996,0.102996,0.102996,0.102996,0.102996,0.102996,0.102996,0.102996,
   **   ~~~   ** Air System Named = CENTRAL SYSTEM did not converge for energy
   **   ~~~   ** Check values should be zero. Most Recent values listed first.
   **   ~~~   ** Demand-to-Supply interface energy check value iteration history trace: 1921.797373,1921.797373,1921.797373,1921.797372,1921.797372,1921.797372,1921.797372,1921.797372,1921.797372,1921.797372,
   **   ~~~   ** Supply-to-demand interface deck 1 energy check value iteration history trace: 2972.441807,2972.441807,2972.441807,2972.441807,2972.441807,2972.441806,2972.441806,2972.441806,2972.441806,2972.441806,
   ** Warning ** SimHVAC: Maximum iterations (20) exceeded for all HVAC loops, at ANNUAL, 02/19 11:23 - 11:30
   **   ~~~   ** The solution for one or more of the Air Loop HVAC systems did not appear to converge
   **   ~~~   ** Air System Named = CENTRAL SYSTEM did not converge for mass flow rate
   **   ~~~   ** Check values should be zero. Most Recent values listed first.
   **   ~~~   ** Demand-to-Supply interface mass flow rate check value iteration history trace: 5.236574E-002,5.236574E-002,5.236574E-002,5.236574E-002,5.236574E-002,5.236574E-002,5.236574E-002,5.236574E-002,5.236574E-002,5.236574E-002,
   **   ~~~   ** Supply-to-demand interface deck 1 mass flow rate check value iteration history trace: 5.236574E-002,5.236574E-002,5.236574E-002,5.236574E-002,5.236574E-002,5.236574E-002,5.236574E-002,5.236574E-002,5.236574E-002,5.236574E-002,
   **   ~~~   ** Air System Named = CENTRAL SYSTEM did not converge for energy
   **   ~~~   ** Check values should be zero. Most Recent values listed first.
   **   ~~~   ** Demand-to-Supply interface energy check value iteration history trace: 1025.442688,1025.442688,1025.442688,1025.442688,1025.442688,1025.442688,1025.442688,1025.442688,1025.442688,1025.442688,
   **   ~~~   ** Supply-to-demand interface deck 1 energy check value iteration history trace: 1950.388594,1950.388594,1950.388594,1950.388594,1950.388594,1950.388594,1950.388594,1950.388594,1950.388594,1950.388594,
   ** Warning ** SimHVAC: Maximum iterations (20) exceeded for all HVAC loops, at ANNUAL, 03/11 09:47 - 09:49
   **   ~~~   ** The solution for one or more of the Air Loop HVAC systems did not appear to converge
   **   ~~~   ** Air System Named = CENTRAL SYSTEM did not converge for mass flow rate
   **   ~~~   ** Check values should be zero. Most Recent values listed first.
   **   ~~~   ** Demand-to-Supply interface mass flow rate check value iteration history trace: 7.705121E-002,7.705121E-002,7.705121E-002,7.705121E-002,7.705121E-002,7.705121E-002,7.705121E-002,7.705121E-002,7.705121E-002,7.705121E-002,
   **   ~~~   ** Supply-to-demand interface deck 1 mass flow rate check value iteration history trace: 7.705121E-002,7.705121E-002,7.705121E-002,7.705121E-002,7.705121E-002,7.705121E-002,7.705121E-002,7.705121E-002,7.705121E-002,7.705121E-002,
   **   ~~~   ** Air System Named = CENTRAL SYSTEM did not converge for energy
   **   ~~~   ** Check values should be zero. Most Recent values listed first.
   **   ~~~   ** Demand-to-Supply interface energy check value iteration history trace: 1522.116145,1522.116145,1522.116145,1522.116145,1522.116145,1522.116145,1522.116145,1522.116145,1522.116145,1522.116145,
   **   ~~~   ** Supply-to-demand interface deck 1 energy check value iteration history trace: 2692.137766,2692.137766,2692.137766,2692.137766,2692.137765,2692.137765,2692.137765,2692.137765,2692.137765,2692.137765,
   ** Warning ** SimHVAC: Maximum iterations (20) exceeded for all HVAC loops, at ANNUAL, 03/18 09:00 - 09:15
   **   ~~~   ** The solution for one or more of the Air Loop HVAC systems did not appear to converge
   **   ~~~   ** Air System Named = CENTRAL SYSTEM did not converge for mass flow rate
   **   ~~~   ** Check values should be zero. Most Recent values listed first.
   **   ~~~   ** Demand-to-Supply interface mass flow rate check value iteration history trace: 9.076363E-002,9.076363E-002,9.076363E-002,9.076363E-002,9.076363E-002,9.076363E-002,9.076363E-002,9.076363E-002,9.076363E-002,9.076363E-002,
   **   ~~~   ** Supply-to-demand interface deck 1 mass flow rate check value iteration history trace: 9.076363E-002,9.076363E-002,9.076363E-002,9.076363E-002,9.076363E-002,9.076363E-002,9.076363E-002,9.076363E-002,9.076363E-002,9.076363E-002,
   **   ~~~   ** Air System Named = CENTRAL SYSTEM did not converge for energy
   **   ~~~   ** Check values should be zero. Most Recent values listed first.
   **   ~~~   ** Demand-to-Supply interface energy check value iteration history trace: 1798.497868,1798.497868,1798.497868,1798.497868,1798.497868,1798.497868,1798.497868,1798.497868,1798.497867,1798.497867,
   **   ~~~   ** Supply-to-demand interface deck 1 energy check value iteration history trace: 3094.949602,3094.949602,3094.949602,3094.949602,3094.949602,3094.949601,3094.949601,3094.949601,3094.949601,3094.949601,
   ** Warning ** SimHVAC: Maximum iterations (20) exceeded for all HVAC loops, at ANNUAL, 03/18 10:41 - 10:45
   **   ~~~   ** The solution for one or more of the Air Loop HVAC systems did not appear to converge
   **   ~~~   ** Air System Named = CENTRAL SYSTEM did not converge for mass flow rate
   **   ~~~   ** Check values should be zero. Most Recent values listed first.
   **   ~~~   ** Demand-to-Supply interface mass flow rate check value iteration history trace: 7.097759E-002,7.097759E-002,7.097759E-002,7.097759E-002,7.097759E-002,7.097759E-002,7.097759E-002,7.097759E-002,7.097759E-002,7.097759E-002,
   **   ~~~   ** Supply-to-demand interface deck 1 mass flow rate check value iteration history trace: 7.097759E-002,7.097759E-002,7.097759E-002,7.097759E-002,7.097759E-002,7.097759E-002,7.097759E-002,7.097759E-002,7.097759E-002,7.097759E-002,
   **   ~~~   ** Air System Named = CENTRAL SYSTEM did not converge for energy
   **   ~~~   ** Check values should be zero. Most Recent values listed first.
   **   ~~~   ** Demand-to-Supply interface energy check value iteration history trace: 1395.844252,1395.844252,1395.844252,1395.844252,1395.844252,1395.844252,1395.844252,1395.844252,1395.844252,1395.844251,
   **   ~~~   ** Supply-to-demand interface deck 1 energy check value iteration history trace: 2431.000161,2431.000161,2431.000161,2431.000161,2431.000161,2431.000161,2431.000161,2431.000161,2431.000160,2431.000160,
   ** Warning ** SimHVAC: Maximum iterations (20) exceeded for all HVAC loops, at ANNUAL, 04/14 06:15 - 06:22
   **   ~~~   ** The solution for one or more of the Air Loop HVAC systems did not appear to converge
   **   ~~~   ** Air System Named = CENTRAL SYSTEM did not converge for mass flow rate
   **   ~~~   ** Check values should be zero. Most Recent values listed first.
   **   ~~~   ** Demand-to-Supply interface mass flow rate check value iteration history trace: 8.899929E-002,8.899929E-002,8.899929E-002,8.899929E-002,8.899929E-002,8.899929E-002,8.899929E-002,8.899929E-002,8.899929E-002,8.899929E-002,
   **   ~~~   ** Supply-to-demand interface deck 1 mass flow rate check value iteration history trace: 8.899929E-002,8.899929E-002,8.899929E-002,8.899929E-002,8.899929E-002,8.899929E-002,8.899929E-002,8.899929E-002,8.899929E-002,8.899929E-002,
   **   ~~~   ** Air System Named = CENTRAL SYSTEM did not converge for energy
   **   ~~~   ** Check values should be zero. Most Recent values listed first.
   **   ~~~   ** Demand-to-Supply interface energy check value iteration history trace: 1763.257658,1763.257658,1763.257657,1763.257657,1763.257657,1763.257657,1763.257657,1763.257657,1763.257657,1763.257657,
   **   ~~~   ** Supply-to-demand interface deck 1 energy check value iteration history trace: 2948.023640,2948.023640,2948.023640,2948.023639,2948.023639,2948.023639,2948.023639,2948.023639,2948.023639,2948.023639,
   ** Warning ** SimHVAC: Maximum iterations (20) exceeded for all HVAC loops, at ANNUAL, 05/02 08:24 - 08:26
   **   ~~~   ** The solution for one or more of the Air Loop HVAC systems did not appear to converge
   **   ~~~   ** Air System Named = CENTRAL SYSTEM did not converge for mass flow rate
   **   ~~~   ** Check values should be zero. Most Recent values listed first.
   **   ~~~   ** Demand-to-Supply interface mass flow rate check value iteration history trace: 8.585110E-002,8.585110E-002,8.585110E-002,8.585110E-002,8.585110E-002,8.585110E-002,8.585110E-002,8.585110E-002,8.585110E-002,8.585110E-002,
   **   ~~~   ** Supply-to-demand interface deck 1 mass flow rate check value iteration history trace: 8.585110E-002,8.585110E-002,8.585110E-002,8.585110E-002,8.585110E-002,8.585110E-002,8.585110E-002,8.585110E-002,8.585110E-002,8.585110E-002,
   **   ~~~   ** Air System Named = CENTRAL SYSTEM did not converge for energy
   **   ~~~   ** Check values should be zero. Most Recent values listed first.
   **   ~~~   ** Demand-to-Supply interface energy check value iteration history trace: 2019.441038,2019.441038,2019.441038,2019.441039,2019.441039,2019.441039,2019.441040,2019.441040,2019.441040,2019.441041,
   **   ~~~   ** Supply-to-demand interface deck 1 energy check value iteration history trace: 1120.843998,1120.843998,1120.843998,1120.843999,1120.843999,1120.843999,1120.843999,1120.843999,1120.844000,1120.844000,
   ** Warning ** SimHVAC: Maximum iterations (20) exceeded for all HVAC loops, at ANNUAL, 05/02 08:34 - 08:36
   **   ~~~   ** The solution for one or more of the Air Loop HVAC systems did not appear to converge
   **   ~~~   ** Air System Named = CENTRAL SYSTEM did not converge for mass flow rate
   **   ~~~   ** Check values should be zero. Most Recent values listed first.
   **   ~~~   ** Demand-to-Supply interface mass flow rate check value iteration history trace: 0.118712,0.118712,0.118712,0.118712,0.118712,0.118712,0.118712,0.118712,0.118712,0.118712,
   **   ~~~   ** Supply-to-demand interface deck 1 mass flow rate check value iteration history trace: 0.118712,0.118712,0.118712,0.118712,0.118712,0.118712,0.118712,0.118712,0.118712,0.118712,
   **   ~~~   ** Air System Named = CENTRAL SYSTEM did not converge for energy
   **   ~~~   ** Check values should be zero. Most Recent values listed first.
   **   ~~~   ** Demand-to-Supply interface energy check value iteration history trace: 2794.598855,2794.598856,2794.598856,2794.598857,2794.598857,2794.598858,2794.598858,2794.598859,2794.598860,2794.598860,
   **   ~~~   ** Supply-to-demand interface deck 1 energy check value iteration history trace: 1554.390029,1554.390029,1554.390029,1554.390030,1554.390030,1554.390030,1554.390031,1554.390031,1554.390031,1554.390032,
   ** Warning ** SimHVAC: Maximum iterations (20) exceeded for all HVAC loops, at ANNUAL, 10/29 08:30 - 08:32
   **   ~~~   ** The solution for one or more of the Air Loop HVAC systems did not appear to converge
   **   ~~~   ** Air System Named = CENTRAL SYSTEM did not converge for mass flow rate
   **   ~~~   ** Check values should be zero. Most Recent values listed first.
   **   ~~~   ** Demand-to-Supply interface mass flow rate check value iteration history trace: 2.277958E-002,2.277958E-002,2.277958E-002,2.277958E-002,2.277958E-002,2.277958E-002,2.277958E-002,2.277958E-002,2.277958E-002,2.277958E-002,
   **   ~~~   ** Supply-to-demand interface deck 1 mass flow rate check value iteration history trace: 2.277958E-002,2.277958E-002,2.277958E-002,2.277958E-002,2.277958E-002,2.277958E-002,2.277958E-002,2.277958E-002,2.277958E-002,2.277958E-002,
   **   ~~~   ** Air System Named = CENTRAL SYSTEM did not converge for energy
   **   ~~~   ** Check values should be zero. Most Recent values listed first.
   **   ~~~   ** Demand-to-Supply interface energy check value iteration history trace: 533.848363,533.848363,533.848363,533.848363,533.848363,533.848363,533.848363,533.848363,533.848363,533.848363,
   **   ~~~   ** Supply-to-demand interface deck 1 energy check value iteration history trace: 312.532991,312.532991,312.532991,312.532991,312.532991,312.532991,312.532991,312.532991,312.532991,312.532991,
   ** Warning ** SimHVAC: Maximum iterations (20) exceeded for all HVAC loops, at ANNUAL, 10/31 08:45 - 08:49
   **   ~~~   ** The solution for one or more of the Air Loop HVAC systems did not appear to converge
   **   ~~~   ** Air System Named = CENTRAL SYSTEM did not converge for mass flow rate
   **   ~~~   ** Check values should be zero. Most Recent values listed first.
   **   ~~~   ** Demand-to-Supply interface mass flow rate check value iteration history trace: 7.239379E-002,7.239379E-002,7.239379E-002,7.239379E-002,7.239379E-002,7.239379E-002,7.239379E-002,7.239379E-002,7.239379E-002,7.239379E-002,
   **   ~~~   ** Supply-to-demand interface deck 1 mass flow rate check value iteration history trace: 7.239379E-002,7.239379E-002,7.239379E-002,7.239379E-002,7.239379E-002,7.239379E-002,7.239379E-002,7.239379E-002,7.239379E-002,7.239379E-002,
   **   ~~~   ** Air System Named = CENTRAL SYSTEM did not converge for energy
   **   ~~~   ** Check values should be zero. Most Recent values listed first.
   **   ~~~   ** Demand-to-Supply interface energy check value iteration history trace: 1429.782155,1429.782154,1429.782154,1429.782154,1429.782154,1429.782154,1429.782154,1429.782154,1429.782154,1429.782154,
   **   ~~~   ** Supply-to-demand interface deck 1 energy check value iteration history trace: 2509.239834,2509.239834,2509.239834,2509.239834,2509.239834,2509.239834,2509.239834,2509.239833,2509.239833,2509.239833,
   ** Warning ** SimHVAC: Maximum iterations (20) exceeded for all HVAC loops, at ANNUAL, 10/31 19:08 - 19:15
   **   ~~~   ** The solution for one or more of the Air Loop HVAC systems did not appear to converge
   **   ~~~   ** Air System Named = CENTRAL SYSTEM did not converge for mass flow rate
   **   ~~~   ** Check values should be zero. Most Recent values listed first.
   **   ~~~   ** Demand-to-Supply interface mass flow rate check value iteration history trace: 7.540218E-002,7.540218E-002,7.540218E-002,7.540218E-002,7.540218E-002,7.540218E-002,7.540218E-002,7.540218E-002,7.540218E-002,7.540218E-002,
   **   ~~~   ** Supply-to-demand interface deck 1 mass flow rate check value iteration history trace: 7.540218E-002,7.540218E-002,7.540218E-002,7.540218E-002,7.540218E-002,7.540218E-002,7.540218E-002,7.540218E-002,7.540218E-002,7.540218E-002,
   **   ~~~   ** Air System Named = CENTRAL SYSTEM did not converge for energy
   **   ~~~   ** Check values should be zero. Most Recent values listed first.
   **   ~~~   ** Demand-to-Supply interface energy check value iteration history trace: 1797.240137,1797.240138,1797.240138,1797.240138,1797.240138,1797.240138,1797.240139,1797.240139,1797.240139,1797.240139,
   **   ~~~   ** Supply-to-demand interface deck 1 energy check value iteration history trace: 870.540188,870.540189,870.540189,870.540189,870.540189,870.540189,870.540189,870.540189,870.540189,870.540189,
   ** Warning ** SimHVAC: Maximum iterations (20) exceeded for all HVAC loops, at ANNUAL, 12/17 10:00 - 10:15
   **   ~~~   ** The solution for one or more of the Air Loop HVAC systems did not appear to converge
   **   ~~~   ** Air System Named = CENTRAL SYSTEM did not converge for mass flow rate
   **   ~~~   ** Check values should be zero. Most Recent values listed first.
   **   ~~~   ** Demand-to-Supply interface mass flow rate check value iteration history trace: 0.108779,0.108779,0.108779,0.108779,0.108779,0.108779,0.108779,0.108779,0.108779,0.108779,
   **   ~~~   ** Supply-to-demand interface deck 1 mass flow rate check value iteration history trace: 0.108779,0.108779,0.108779,0.108779,0.108779,0.108779,0.108779,0.108779,0.108779,0.108779,
   **   ~~~   ** Air System Named = CENTRAL SYSTEM did not converge for energy
   **   ~~~   ** Check values should be zero. Most Recent values listed first.
   **   ~~~   ** Demand-to-Supply interface energy check value iteration history trace: 2155.608643,2155.608642,2155.608642,2155.608642,2155.608642,2155.608642,2155.608642,2155.608642,2155.608641,2155.608641,
   **   ~~~   ** Supply-to-demand interface deck 1 energy check value iteration history trace: 3322.037860,3322.037860,3322.037860,3322.037859,3322.037859,3322.037859,3322.037859,3322.037858,3322.037858,3322.037858,
   ************* Simulation Error Summary *************
   ** Warning ** The following Report Variables were requested but not generated -- check.rdd file
   **   ~~~   ** Either the IDF did not contain these elements, the variable name is misspelled,
   **   ~~~   ** or the requested variable is an advanced output which requires Output : Diagnostics, DisplayAdvancedReportVariables;
   ************* Key=*, VarName=BASEBOARD TOTAL HEATING ENERGY, Frequency=
   ************* Key=*, VarName=WATER HEATER NATURALGAS ENERGY, Frequency=
   ************* Key=*, VarName=COOLING COIL TOTAL HEATING ENERGY, Frequency=
   ************* There are 34 unused schedules in input.
   ************* There are 388 unused week schedules in input.
   ************* There are 396 unused day schedules in input.
   ************* Use Output:Diagnostics,DisplayUnusedSchedules; to see them.
   *************
   ************* ===== Recurring Error Summary =====
   ************* The following recurring error messages occurred.
   *************
   *************  ** Warning ** "TOTAL HOT WATER LOAD" - Target water temperature should be less than or equal to the hot water temperature error continues...
   *************  **   ~~~   **   This error occurred 114633 total times;
   *************  **   ~~~   **   during Warmup 0 times;
   *************  **   ~~~   **   during Sizing 0 times.
   *************  **   ~~~   **   Max=8.479559  Min=7.809663E-005
   *************
   *************  ** Warning ** SimHVAC: Exceeding Maximum iterations for all HVAC loops, during ANNUAL continues
   *************  **   ~~~   **   This error occurred 1 total times;
   *************  **   ~~~   **   during Warmup 0 times;
   *************  **   ~~~   **   during Sizing 0 times.
   *************
   *************
   ************* ===== Final Error Summary =====
   ************* The following error categories occurred.  Consider correcting or noting.
   ************* Nominally Unused Constructions
   ************* ..The nominally unused constructions warning is provided to alert you to potential conditions that can cause
   ************* ..extra time during simulation. Each construction is calculated by the algorithm indicated in the HeatBalanceAlgorithm
   ************* ..object. You may remove the constructions indicated (when you use the DisplayExtraWarnings option).
   *************
   ************* EnergyPlus Warmup Error Summary. During Warmup: 1 Warning; 0 Severe Errors.
   ************* EnergyPlus Sizing Error Summary. During Sizing: 4 Warning; 0 Severe Errors.
   ************* EnergyPlus Completed Successfully-- 114666 Warning; 0 Severe Errors; Elapsed Time=00hr 05min 36.32sec
