Program Version,EnergyPlus, Version 22.2.0-c249759bad, YMD=2023.09.01 14:43,
   ************* Beginning Zone Sizing Calculations
   ** Warning ** ProcessScheduleInput: Schedule:Constant="ALWAYS ON DISCRETE", Schedule Type Limits Name="ONOFF" not found -- will not be validated
   ** Warning ** Foundation:Kiva="KIVA FOUNDATION", no Interior Horizontal Insulation Material Name defined
   **   ~~~   ** Interior Horizontal Insulation Depth will not be used.
   ** Warning ** CheckUsedConstructions: There are 15 nominally unused constructions in input.
   **   ~~~   ** Each Unused construction is shown.
   ************* Construction=INTERIOR FLOOR
   ************* Construction=INTERIOR WINDOW
   ************* Construction=EXTERIOR DOOR
   ************* Construction=INTERIOR DOOR
   ************* Construction=GABLE CONSTRUCTION
   ************* Construction=CRAWL_FLOOR
   ************* Construction=INSULATED PIPE
   ************* Construction=PLAIN PIPE
   ************* Construction=TDD PIPE
   ************* Construction=TDD DOME
   ************* Construction=TDD DIFFUSER
   ************* Construction=CRAWL WALL
   ************* Construction=CEILING-FLOOR-LAYER
   ************* Construction=SLAB CONSTRUCTION W FULL R10 INSULATION
   ************* Construction=SLAB CONSTRUCTION W FULL R5 INSULATION
   ** Warning ** GetDXCoils: Coil:Heating:DX:SingleSpeed="DX_HEATING_COIL" curve values
   **   ~~~   ** ... Defrost Energy Input Ratio Function of Temperature Curve Name = DEFROSTEIR output is not equal to 1.0 (+ or - 10%) at rated conditions.
   **   ~~~   ** ... Curve output at rated conditions = 0.152
   ************* Beginning System Sizing Calculations
   ************* Beginning Plant Sizing Calculations
   ** Warning ** Coil:WaterHeating:AirToWaterHeatPump:Wrapped "HEAT PUMP WATER HEATER EVAPORATOR": Rated air volume flow rate per watt of rated total water heating capacity is out of range
   **   ~~~   ** Min Rated Vol Flow Per Watt=[4.027E-005], Rated Vol Flow Per Watt=[1.386E-004], Max Rated Vol Flow Per Watt=[8.056E-005]. See Input-Output Reference Manual for valid range.
   ** Warning ** Water heater = WATER HEATER TANK:  Recovery Efficiency and Energy Factor could not be calculated during the test for standard ratings
   **   ~~~   ** Setpoint was never recovered and/or heater never turned on
   ** Warning ** Check input. Pump nominal power or motor efficiency is set to 0, for pump=MAINS PRESSURE
   ** Warning ** Output:Meter: invalid Key Name="ELECTRIC_RANGE:INTERIOREQUIPMENT:ELECTRICITY" - not found.
   ** Warning ** Output:Meter: invalid Key Name="ELECTRIC_DRYER:INTERIOREQUIPMENT:ELECTRICITY" - not found.
   ** Warning ** Output:Meter: invalid Key Name="HEATRECOVERY:ELECTRICITY" - not found.
   ** Warning ** Output:Meter: invalid Key Name="HEATING:NATURALGAS" - not found.
   ** Warning ** Output:Meter: invalid Key Name="WATERSYSTEMS:NATURALGAS" - not found.
   ** Warning ** Output:Meter: invalid Key Name="PROPANE:FACILITY" - not found.
   ** Warning ** Output:Meter: invalid Key Name="HEATING:PROPANE" - not found.
   ************* Testing Individual Branch Integrity
   ************* All Branches passed integrity testing
   ************* Testing Individual Supply Air Path Integrity
   ************* All Supply Air Paths passed integrity testing
   ************* Testing Individual Return Air Path Integrity
   ************* All Return Air Paths passed integrity testing
   ************* No node connection errors were found.
   ************* Beginning Simulation
   ** Warning ** AirflowNetwork::Solver::validate_distribution: Heat pump water heater is simulated along with an AirflowNetwork but is not included in the AirflowNetwork.
   ** Warning ** CalcEquipmentFlowRates: "TOTAL HOT WATER LOAD" - Target water temperature is greater than the hot water temperature by (1.63 C)
   **   ~~~   **  Environment=EXTREME_WINTER, at Simulation time=01/08 06:00 - 06:15
   **   ~~~   ** ...target water temperature     = 53.33 C
   **   ~~~   ** ...hot water temperature        = 51.70 C
   **   ~~~   ** ...Target water temperature should be less than or equal to the hot water temperature. Verify temperature setpoints and schedules.
   ** Warning ** SimHVAC: Maximum iterations (20) exceeded for all HVAC loops, at ANNUAL, 01/21 18:53 - 19:00
   **   ~~~   ** The solution for one or more of the Air Loop HVAC systems did not appear to converge
   **   ~~~   ** Air System Named = CENTRAL SYSTEM did not converge for mass flow rate
   **   ~~~   ** Check values should be zero. Most Recent values listed first.
   **   ~~~   ** Demand-to-Supply interface mass flow rate check value iteration history trace: 0.112124,0.112124,0.112124,0.112124,0.112124,0.112124,0.112124,0.112124,0.112124,0.112124,
   **   ~~~   ** Supply-to-demand interface deck 1 mass flow rate check value iteration history trace: 0.112124,0.112124,0.112124,0.112124,0.112124,0.112124,0.112124,0.112124,0.112124,0.112124,
   **   ~~~   ** Air System Named = CENTRAL SYSTEM did not converge for energy
   **   ~~~   ** Check values should be zero. Most Recent values listed first.
   **   ~~~   ** Demand-to-Supply interface energy check value iteration history trace: 2219.533562,2219.533562,2219.533562,2219.533562,2219.533562,2219.533562,2219.533561,2219.533561,2219.533561,2219.533561,
   **   ~~~   ** Supply-to-demand interface deck 1 energy check value iteration history trace: 3404.296550,3404.296550,3404.296550,3404.296549,3404.296549,3404.296549,3404.296549,3404.296548,3404.296548,3404.296548,
   ** Warning ** SimHVAC: Maximum iterations (20) exceeded for all HVAC loops, at ANNUAL, 03/25 10:45 - 10:47
   **   ~~~   ** The solution for one or more of the Air Loop HVAC systems did not appear to converge
   **   ~~~   ** Air System Named = CENTRAL SYSTEM did not converge for mass flow rate
   **   ~~~   ** Check values should be zero. Most Recent values listed first.
   **   ~~~   ** Demand-to-Supply interface mass flow rate check value iteration history trace: 8.814207E-002,8.814207E-002,8.814207E-002,8.814207E-002,8.814207E-002,8.814207E-002,8.814207E-002,8.814207E-002,8.814207E-002,8.814207E-002,
   **   ~~~   ** Supply-to-demand interface deck 1 mass flow rate check value iteration history trace: 8.814207E-002,8.814207E-002,8.814207E-002,8.814207E-002,8.814207E-002,8.814207E-002,8.814207E-002,8.814207E-002,8.814207E-002,8.814207E-002,
   **   ~~~   ** Air System Named = CENTRAL SYSTEM did not converge for energy
   **   ~~~   ** Check values should be zero. Most Recent values listed first.
   **   ~~~   ** Demand-to-Supply interface energy check value iteration history trace: 1743.783941,1743.783941,1743.783941,1743.783941,1743.783940,1743.783940,1743.783940,1743.783940,1743.783940,1743.783940,
   **   ~~~   ** Supply-to-demand interface deck 1 energy check value iteration history trace: 2744.997186,2744.997186,2744.997186,2744.997186,2744.997186,2744.997185,2744.997185,2744.997185,2744.997185,2744.997185,
   ** Warning ** SimHVAC: Maximum iterations (20) exceeded for all HVAC loops, at ANNUAL, 03/26 11:45 - 11:47
   **   ~~~   ** The solution for one or more of the Air Loop HVAC systems did not appear to converge
   **   ~~~   ** Air System Named = CENTRAL SYSTEM did not converge for mass flow rate
   **   ~~~   ** Check values should be zero. Most Recent values listed first.
   **   ~~~   ** Demand-to-Supply interface mass flow rate check value iteration history trace: 8.355858E-002,8.355858E-002,8.355858E-002,8.355858E-002,8.355858E-002,8.355858E-002,8.355858E-002,8.355858E-002,8.355858E-002,8.355858E-002,
   **   ~~~   ** Supply-to-demand interface deck 1 mass flow rate check value iteration history trace: 8.355858E-002,8.355858E-002,8.355858E-002,8.355858E-002,8.355858E-002,8.355858E-002,8.355858E-002,8.355858E-002,8.355858E-002,8.355858E-002,
   **   ~~~   ** Air System Named = CENTRAL SYSTEM did not converge for energy
   **   ~~~   ** Check values should be zero. Most Recent values listed first.
   **   ~~~   ** Demand-to-Supply interface energy check value iteration history trace: 1655.859674,1655.859674,1655.859674,1655.859674,1655.859674,1655.859674,1655.859674,1655.859673,1655.859673,1655.859673,
   **   ~~~   ** Supply-to-demand interface deck 1 energy check value iteration history trace: 2591.993533,2591.993533,2591.993533,2591.993533,2591.993532,2591.993532,2591.993532,2591.993532,2591.993532,2591.993532,
   ** Warning ** SimHVAC: Maximum iterations (20) exceeded for all HVAC loops, at ANNUAL, 03/26 12:15 - 12:20
   **   ~~~   ** The solution for one or more of the Air Loop HVAC systems did not appear to converge
   **   ~~~   ** Air System Named = CENTRAL SYSTEM did not converge for mass flow rate
   **   ~~~   ** Check values should be zero. Most Recent values listed first.
   **   ~~~   ** Demand-to-Supply interface mass flow rate check value iteration history trace: 7.723279E-002,7.723279E-002,7.723279E-002,7.723279E-002,7.723279E-002,7.723279E-002,7.723279E-002,7.723279E-002,7.723279E-002,7.723279E-002,
   **   ~~~   ** Supply-to-demand interface deck 1 mass flow rate check value iteration history trace: 7.723279E-002,7.723279E-002,7.723279E-002,7.723279E-002,7.723279E-002,7.723279E-002,7.723279E-002,7.723279E-002,7.723279E-002,7.723279E-002,
   **   ~~~   ** Air System Named = CENTRAL SYSTEM did not converge for energy
   **   ~~~   ** Check values should be zero. Most Recent values listed first.
   **   ~~~   ** Demand-to-Supply interface energy check value iteration history trace: 1526.228289,1526.228289,1526.228288,1526.228288,1526.228288,1526.228288,1526.228288,1526.228288,1526.228288,1526.228288,
   **   ~~~   ** Supply-to-demand interface deck 1 energy check value iteration history trace: 2391.752772,2391.752772,2391.752772,2391.752771,2391.752771,2391.752771,2391.752771,2391.752771,2391.752771,2391.752771,
   ** Warning ** SimHVAC: Maximum iterations (20) exceeded for all HVAC loops, at ANNUAL, 04/04 08:49 - 08:52
   **   ~~~   ** The solution for one or more of the Air Loop HVAC systems did not appear to converge
   **   ~~~   ** Air System Named = CENTRAL SYSTEM did not converge for mass flow rate
   **   ~~~   ** Check values should be zero. Most Recent values listed first.
   **   ~~~   ** Demand-to-Supply interface mass flow rate check value iteration history trace: 8.912624E-002,8.912624E-002,8.912624E-002,8.912624E-002,8.912624E-002,8.912624E-002,8.912624E-002,8.912624E-002,8.912624E-002,8.912624E-002,
   **   ~~~   ** Supply-to-demand interface deck 1 mass flow rate check value iteration history trace: 8.912624E-002,8.912624E-002,8.912624E-002,8.912624E-002,8.912624E-002,8.912624E-002,8.912624E-002,8.912624E-002,8.912624E-002,8.912624E-002,
   **   ~~~   ** Air System Named = CENTRAL SYSTEM did not converge for energy
   **   ~~~   ** Check values should be zero. Most Recent values listed first.
   **   ~~~   ** Demand-to-Supply interface energy check value iteration history trace: 1766.241706,1766.241706,1766.241706,1766.241705,1766.241705,1766.241705,1766.241705,1766.241705,1766.241705,1766.241705,
   **   ~~~   ** Supply-to-demand interface deck 1 energy check value iteration history trace: 2807.293211,2807.293211,2807.293211,2807.293211,2807.293210,2807.293210,2807.293210,2807.293210,2807.293210,2807.293210,
   ** Warning ** SimHVAC: Maximum iterations (20) exceeded for all HVAC loops, at ANNUAL, 04/04 09:00 - 09:15
   **   ~~~   ** The solution for one or more of the Air Loop HVAC systems did not appear to converge
   **   ~~~   ** Air System Named = CENTRAL SYSTEM did not converge for mass flow rate
   **   ~~~   ** Check values should be zero. Most Recent values listed first.
   **   ~~~   ** Demand-to-Supply interface mass flow rate check value iteration history trace: 7.427133E-002,7.427133E-002,7.427133E-002,7.427133E-002,7.427133E-002,7.427133E-002,7.427133E-002,7.427133E-002,7.427133E-002,7.427133E-002,
   **   ~~~   ** Supply-to-demand interface deck 1 mass flow rate check value iteration history trace: 7.427133E-002,7.427133E-002,7.427133E-002,7.427133E-002,7.427133E-002,7.427133E-002,7.427133E-002,7.427133E-002,7.427133E-002,7.427133E-002,
   **   ~~~   ** Air System Named = CENTRAL SYSTEM did not converge for energy
   **   ~~~   ** Check values should be zero. Most Recent values listed first.
   **   ~~~   ** Demand-to-Supply interface energy check value iteration history trace: 1465.436665,1465.436665,1465.436665,1465.436664,1465.436664,1465.436664,1465.436664,1465.436664,1465.436664,1465.436664,
   **   ~~~   ** Supply-to-demand interface deck 1 energy check value iteration history trace: 2457.745216,2457.745216,2457.745216,2457.745216,2457.745216,2457.745216,2457.745215,2457.745215,2457.745215,2457.745215,
   ** Warning ** SimHVAC: Maximum iterations (20) exceeded for all HVAC loops, at ANNUAL, 04/15 09:15 - 09:30
   **   ~~~   ** The solution for one or more of the Air Loop HVAC systems did not appear to converge
   **   ~~~   ** Air System Named = CENTRAL SYSTEM did not converge for mass flow rate
   **   ~~~   ** Check values should be zero. Most Recent values listed first.
   **   ~~~   ** Demand-to-Supply interface mass flow rate check value iteration history trace: 8.317725E-002,8.317725E-002,8.317725E-002,8.317725E-002,8.317725E-002,8.317725E-002,8.317725E-002,8.317725E-002,8.317725E-002,8.317725E-002,
   **   ~~~   ** Supply-to-demand interface deck 1 mass flow rate check value iteration history trace: 8.317725E-002,8.317725E-002,8.317725E-002,8.317725E-002,8.317725E-002,8.317725E-002,8.317725E-002,8.317725E-002,8.317725E-002,8.317725E-002,
   **   ~~~   ** Air System Named = CENTRAL SYSTEM did not converge for energy
   **   ~~~   ** Check values should be zero. Most Recent values listed first.
   **   ~~~   ** Demand-to-Supply interface energy check value iteration history trace: 1646.818965,1646.818964,1646.818964,1646.818964,1646.818964,1646.818964,1646.818964,1646.818964,1646.818964,1646.818964,
   **   ~~~   ** Supply-to-demand interface deck 1 energy check value iteration history trace: 2853.871652,2853.871652,2853.871652,2853.871651,2853.871651,2853.871651,2853.871651,2853.871651,2853.871651,2853.871651,
   ** Warning ** SimHVAC: Maximum iterations (20) exceeded for all HVAC loops, at ANNUAL, 10/06 07:30 - 07:38
   **   ~~~   ** The solution for one or more of the Air Loop HVAC systems did not appear to converge
   **   ~~~   ** Air System Named = CENTRAL SYSTEM did not converge for mass flow rate
   **   ~~~   ** Check values should be zero. Most Recent values listed first.
   **   ~~~   ** Demand-to-Supply interface mass flow rate check value iteration history trace: 7.419731E-002,7.419731E-002,7.419731E-002,7.419731E-002,7.419731E-002,7.419731E-002,7.419731E-002,7.419731E-002,7.419731E-002,7.419731E-002,
   **   ~~~   ** Supply-to-demand interface deck 1 mass flow rate check value iteration history trace: 7.419731E-002,7.419731E-002,7.419731E-002,7.419731E-002,7.419731E-002,7.419731E-002,7.419731E-002,7.419731E-002,7.419731E-002,7.419731E-002,
   **   ~~~   ** Air System Named = CENTRAL SYSTEM did not converge for energy
   **   ~~~   ** Check values should be zero. Most Recent values listed first.
   **   ~~~   ** Demand-to-Supply interface energy check value iteration history trace: 1457.657031,1457.657031,1457.657031,1457.657031,1457.657031,1457.657031,1457.657031,1457.657031,1457.657031,1457.657031,
   **   ~~~   ** Supply-to-demand interface deck 1 energy check value iteration history trace: 2523.609071,2523.609070,2523.609070,2523.609070,2523.609070,2523.609070,2523.609070,2523.609070,2523.609070,2523.609069,
   ** Warning ** SimHVAC: Maximum iterations (20) exceeded for all HVAC loops, at ANNUAL, 11/05 18:53 - 19:00
   **   ~~~   ** The solution for one or more of the Air Loop HVAC systems did not appear to converge
   **   ~~~   ** Air System Named = CENTRAL SYSTEM did not converge for mass flow rate
   **   ~~~   ** Check values should be zero. Most Recent values listed first.
   **   ~~~   ** Demand-to-Supply interface mass flow rate check value iteration history trace: 8.114564E-002,8.114564E-002,8.114564E-002,8.114564E-002,8.114564E-002,8.114564E-002,8.114564E-002,8.114564E-002,8.114564E-002,8.114564E-002,
   **   ~~~   ** Supply-to-demand interface deck 1 mass flow rate check value iteration history trace: 8.114564E-002,8.114564E-002,8.114564E-002,8.114564E-002,8.114564E-002,8.114564E-002,8.114564E-002,8.114564E-002,8.114564E-002,8.114564E-002,
   **   ~~~   ** Air System Named = CENTRAL SYSTEM did not converge for energy
   **   ~~~   ** Check values should be zero. Most Recent values listed first.
   **   ~~~   ** Demand-to-Supply interface energy check value iteration history trace: 1598.792659,1598.792659,1598.792659,1598.792659,1598.792659,1598.792659,1598.792659,1598.792658,1598.792658,1598.792658,
   **   ~~~   ** Supply-to-demand interface deck 1 energy check value iteration history trace: 2776.925982,2776.925982,2776.925982,2776.925982,2776.925982,2776.925982,2776.925982,2776.925982,2776.925981,2776.925981,
   ** Warning ** SimHVAC: Maximum iterations (20) exceeded for all HVAC loops, at ANNUAL, 11/19 11:00 - 11:15
   **   ~~~   ** The solution for one or more of the Air Loop HVAC systems did not appear to converge
   **   ~~~   ** Air System Named = CENTRAL SYSTEM did not converge for mass flow rate
   **   ~~~   ** Check values should be zero. Most Recent values listed first.
   **   ~~~   ** Demand-to-Supply interface mass flow rate check value iteration history trace: 7.901712E-002,7.901712E-002,7.901712E-002,7.901712E-002,7.901712E-002,7.901712E-002,7.901712E-002,7.901712E-002,7.901712E-002,7.901712E-002,
   **   ~~~   ** Supply-to-demand interface deck 1 mass flow rate check value iteration history trace: 7.901712E-002,7.901712E-002,7.901712E-002,7.901712E-002,7.901712E-002,7.901712E-002,7.901712E-002,7.901712E-002,7.901712E-002,7.901712E-002,
   **   ~~~   ** Air System Named = CENTRAL SYSTEM did not converge for energy
   **   ~~~   ** Check values should be zero. Most Recent values listed first.
   **   ~~~   ** Demand-to-Supply interface energy check value iteration history trace: 1561.419034,1561.419034,1561.419034,1561.419034,1561.419034,1561.419034,1561.419033,1561.419033,1561.419033,1561.419033,
   **   ~~~   ** Supply-to-demand interface deck 1 energy check value iteration history trace: 2679.712667,2679.712667,2679.712667,2679.712667,2679.712666,2679.712666,2679.712666,2679.712666,2679.712666,2679.712666,
   ** Warning ** SimHVAC: Maximum iterations (20) exceeded for all HVAC loops, at ANNUAL, 11/19 21:00 - 21:15
   **   ~~~   ** The solution for one or more of the Air Loop HVAC systems did not appear to converge
   **   ~~~   ** Air System Named = CENTRAL SYSTEM did not converge for mass flow rate
   **   ~~~   ** Check values should be zero. Most Recent values listed first.
   **   ~~~   ** Demand-to-Supply interface mass flow rate check value iteration history trace: 9.472765E-002,9.472765E-002,9.472765E-002,9.472765E-002,9.472765E-002,9.472765E-002,9.472765E-002,9.472765E-002,9.472765E-002,9.472765E-002,
   **   ~~~   ** Supply-to-demand interface deck 1 mass flow rate check value iteration history trace: 9.472765E-002,9.472765E-002,9.472765E-002,9.472765E-002,9.472765E-002,9.472765E-002,9.472765E-002,9.472765E-002,9.472765E-002,9.472765E-002,
   **   ~~~   ** Air System Named = CENTRAL SYSTEM did not converge for energy
   **   ~~~   ** Check values should be zero. Most Recent values listed first.
   **   ~~~   ** Demand-to-Supply interface energy check value iteration history trace: 1873.990264,1873.990264,1873.990264,1873.990264,1873.990264,1873.990264,1873.990264,1873.990263,1873.990263,1873.990263,
   **   ~~~   ** Supply-to-demand interface deck 1 energy check value iteration history trace: 2901.842691,2901.842691,2901.842691,2901.842691,2901.842691,2901.842691,2901.842690,2901.842690,2901.842690,2901.842690,
   ** Warning ** SimHVAC: Maximum iterations (20) exceeded for all HVAC loops, at ANNUAL, 12/03 20:00 - 20:15
   **   ~~~   ** The solution for one or more of the Air Loop HVAC systems did not appear to converge
   **   ~~~   ** Air System Named = CENTRAL SYSTEM did not converge for mass flow rate
   **   ~~~   ** Check values should be zero. Most Recent values listed first.
   **   ~~~   ** Demand-to-Supply interface mass flow rate check value iteration history trace: 8.483314E-002,8.483314E-002,8.483314E-002,8.483314E-002,8.483314E-002,8.483314E-002,8.483314E-002,8.483314E-002,8.483314E-002,8.483314E-002,
   **   ~~~   ** Supply-to-demand interface deck 1 mass flow rate check value iteration history trace: 8.483314E-002,8.483314E-002,8.483314E-002,8.483314E-002,8.483314E-002,8.483314E-002,8.483314E-002,8.483314E-002,8.483314E-002,8.483314E-002,
   **   ~~~   ** Air System Named = CENTRAL SYSTEM did not converge for energy
   **   ~~~   ** Check values should be zero. Most Recent values listed first.
   **   ~~~   ** Demand-to-Supply interface energy check value iteration history trace: 1659.244323,1659.244322,1659.244322,1659.244322,1659.244322,1659.244322,1659.244322,1659.244322,1659.244322,1659.244322,
   **   ~~~   ** Supply-to-demand interface deck 1 energy check value iteration history trace: 2884.364006,2884.364006,2884.364006,2884.364006,2884.364006,2884.364006,2884.364005,2884.364005,2884.364005,2884.364005,
   ** Warning ** SimHVAC: Maximum iterations (20) exceeded for all HVAC loops, at ANNUAL, 12/23 19:15 - 19:30
   **   ~~~   ** The solution for one or more of the Air Loop HVAC systems did not appear to converge
   **   ~~~   ** Air System Named = CENTRAL SYSTEM did not converge for mass flow rate
   **   ~~~   ** Check values should be zero. Most Recent values listed first.
   **   ~~~   ** Demand-to-Supply interface mass flow rate check value iteration history trace: 8.549013E-002,8.549013E-002,8.549013E-002,8.549013E-002,8.549013E-002,8.549013E-002,8.549013E-002,8.549013E-002,8.549013E-002,8.549013E-002,
   **   ~~~   ** Supply-to-demand interface deck 1 mass flow rate check value iteration history trace: 8.549013E-002,8.549013E-002,8.549013E-002,8.549013E-002,8.549013E-002,8.549013E-002,8.549013E-002,8.549013E-002,8.549013E-002,8.549013E-002,
   **   ~~~   ** Air System Named = CENTRAL SYSTEM did not converge for energy
   **   ~~~   ** Check values should be zero. Most Recent values listed first.
   **   ~~~   ** Demand-to-Supply interface energy check value iteration history trace: 1675.476258,1675.476258,1675.476258,1675.476258,1675.476258,1675.476258,1675.476258,1675.476258,1675.476258,1675.476258,
   **   ~~~   ** Supply-to-demand interface deck 1 energy check value iteration history trace: 2827.604748,2827.604748,2827.604748,2827.604748,2827.604748,2827.604748,2827.604747,2827.604747,2827.604747,2827.604747,
   ************* Simulation Error Summary *************
   ** Warning ** The following Report Variables were requested but not generated -- check.rdd file
   **   ~~~   ** Either the IDF did not contain these elements, the variable name is misspelled,
   **   ~~~   ** or the requested variable is an advanced output which requires Output : Diagnostics, DisplayAdvancedReportVariables;
   ************* Key=*, VarName=BASEBOARD TOTAL HEATING ENERGY, Frequency=
   ************* Key=*, VarName=WATER HEATER NATURALGAS ENERGY, Frequency=
   ************* Key=*, VarName=COOLING COIL TOTAL HEATING ENERGY, Frequency=
   ************* There are 34 unused schedules in input.
   ************* There are 388 unused week schedules in input.
   ************* There are 396 unused day schedules in input.
   ************* Use Output:Diagnostics,DisplayUnusedSchedules; to see them.
   *************
   ************* ===== Recurring Error Summary =====
   ************* The following recurring error messages occurred.
   *************
   *************  ** Warning ** "TOTAL HOT WATER LOAD" - Target water temperature should be less than or equal to the hot water temperature error continues...
   *************  **   ~~~   **   This error occurred 87545 total times;
   *************  **   ~~~   **   during Warmup 0 times;
   *************  **   ~~~   **   during Sizing 0 times.
   *************  **   ~~~   **   Max=10.09766  Min=2.975956E-004
   *************
   *************
   ************* ===== Final Error Summary =====
   ************* The following error categories occurred.  Consider correcting or noting.
   ************* Nominally Unused Constructions
   ************* ..The nominally unused constructions warning is provided to alert you to potential conditions that can cause
   ************* ..extra time during simulation. Each construction is calculated by the algorithm indicated in the HeatBalanceAlgorithm
   ************* ..object. You may remove the constructions indicated (when you use the DisplayExtraWarnings option).
   *************
   ************* EnergyPlus Warmup Error Summary. During Warmup: 1 Warning; 0 Severe Errors.
   ************* EnergyPlus Sizing Error Summary. During Sizing: 4 Warning; 0 Severe Errors.
   ************* EnergyPlus Completed Successfully-- 87575 Warning; 0 Severe Errors; Elapsed Time=00hr 05min  2.57sec
