Program Version,EnergyPlus, Version 22.2.0-c249759bad, YMD=2023.09.01 19:02,
   ************* Beginning Zone Sizing Calculations
   ** Warning ** ProcessScheduleInput: Schedule:Constant="ALWAYS ON DISCRETE", Schedule Type Limits Name="ONOFF" not found -- will not be validated
   ** Warning ** Foundation:Kiva="KIVA FOUNDATION", no Interior Horizontal Insulation Material Name defined
   **   ~~~   ** Interior Horizontal Insulation Depth will not be used.
   ** Warning ** CheckUsedConstructions: There are 15 nominally unused constructions in input.
   **   ~~~   ** Each Unused construction is shown.
   ************* Construction=INTERIOR FLOOR
   ************* Construction=INTERIOR WINDOW
   ************* Construction=EXTERIOR DOOR
   ************* Construction=INTERIOR DOOR
   ************* Construction=GABLE CONSTRUCTION
   ************* Construction=CRAWL_FLOOR
   ************* Construction=INSULATED PIPE
   ************* Construction=PLAIN PIPE
   ************* Construction=TDD PIPE
   ************* Construction=TDD DOME
   ************* Construction=TDD DIFFUSER
   ************* Construction=CRAWL WALL
   ************* Construction=CEILING-FLOOR-LAYER
   ************* Construction=SLAB CONSTRUCTION W FULL R10 INSULATION
   ************* Construction=SLAB CONSTRUCTION W FULL R5 INSULATION
   ** Warning ** GetDXCoils: Coil:Heating:DX:SingleSpeed="DX_HEATING_COIL" curve values
   **   ~~~   ** ... Defrost Energy Input Ratio Function of Temperature Curve Name = DEFROSTEIR output is not equal to 1.0 (+ or - 10%) at rated conditions.
   **   ~~~   ** ... Curve output at rated conditions = 0.152
   ************* Beginning System Sizing Calculations
   ************* Beginning Plant Sizing Calculations
   ** Warning ** SizeDXCoil Coil:Cooling:DX:SingleSpeed DX_COOLING_COIL
   **   ~~~   ** ...Gross Rated Total Cooling Capacity [W] will be limited by the maximum rated volume flow per rated total capacity ratio.
   **   ~~~   ** ...DX coil volume flow rate ( m3/s ) = 0.394297
   **   ~~~   ** ...Requested capacity ( W ) = 6099.924
   **   ~~~   ** ...Requested flow/capacity ratio ( m3/s/W ) = 6.463E-005
   **   ~~~   ** ...Maximum flow/capacity ratio ( m3/s/W ) = 6.041E-005
   **   ~~~   ** ...Adjusted capacity ( W ) = 6527.031
   ** Warning ** SizeDXCoil Coil:Heating:DX:SingleSpeed DX_HEATING_COIL
   **   ~~~   ** ...Gross Rated Heating Capacity [W] will be limited by the maximum rated volume flow per rated total capacity ratio.
   **   ~~~   ** ...DX coil volume flow rate ( m3/s ) = 0.394297
   **   ~~~   ** ...Requested capacity ( W ) = 6527.031
   **   ~~~   ** ...Requested flow/capacity ratio ( m3/s/W ) = 6.041E-005
   **   ~~~   ** ...Maximum flow/capacity ratio ( m3/s/W ) = 6.041E-005
   **   ~~~   ** ...Adjusted capacity ( W ) = 6527.031
   ** Warning ** Coil:WaterHeating:AirToWaterHeatPump:Wrapped "HEAT PUMP WATER HEATER EVAPORATOR": Rated air volume flow rate per watt of rated total water heating capacity is out of range
   **   ~~~   ** Min Rated Vol Flow Per Watt=[4.027E-005], Rated Vol Flow Per Watt=[1.510E-004], Max Rated Vol Flow Per Watt=[8.056E-005]. See Input-Output Reference Manual for valid range.
   ************* SizeFan: : Potential issue with equipment sizing for Fan:OnOff HEAT PUMP WATER HEATER FAN
   **   ~~~   ** User-Specified Maximum Flow Rate [m3/s] = 0.22653
   **   ~~~   ** differs from Design Size Maximum Flow Rate [m3/s] = 7.55250E-002
   **   ~~~   ** This may, or may not, indicate mismatched component sizes.
   **   ~~~   ** Verify that the value entered is intended and is consistent with other components.
   ** Warning ** Water heater = WATER HEATER TANK:  Recovery Efficiency and Energy Factor could not be calculated during the test for standard ratings
   **   ~~~   ** Setpoint was never recovered and/or heater never turned on
   ** Warning ** Check input. Pump nominal power or motor efficiency is set to 0, for pump=MAINS PRESSURE
   ** Warning ** Output:Meter: invalid Key Name="ELECTRIC_RANGE:INTERIOREQUIPMENT:ELECTRICITY" - not found.
   ** Warning ** Output:Meter: invalid Key Name="ELECTRIC_DRYER:INTERIOREQUIPMENT:ELECTRICITY" - not found.
   ** Warning ** Output:Meter: invalid Key Name="HEATRECOVERY:ELECTRICITY" - not found.
   ** Warning ** Output:Meter: invalid Key Name="HEATING:NATURALGAS" - not found.
   ** Warning ** Output:Meter: invalid Key Name="WATERSYSTEMS:NATURALGAS" - not found.
   ** Warning ** Output:Meter: invalid Key Name="PROPANE:FACILITY" - not found.
   ** Warning ** Output:Meter: invalid Key Name="HEATING:PROPANE" - not found.
   ************* Testing Individual Branch Integrity
   ************* All Branches passed integrity testing
   ************* Testing Individual Supply Air Path Integrity
   ************* All Supply Air Paths passed integrity testing
   ************* Testing Individual Return Air Path Integrity
   ************* All Return Air Paths passed integrity testing
   ************* No node connection errors were found.
   ************* Beginning Simulation
   ** Warning ** AirflowNetwork::Solver::validate_distribution: Heat pump water heater is simulated along with an AirflowNetwork but is not included in the AirflowNetwork.
   ** Warning ** CalcEquipmentFlowRates: "TOTAL HOT WATER LOAD" - Target water temperature is greater than the hot water temperature by (0.18 C)
   **   ~~~   **  Environment=EXTREME_WINTER, at Simulation time=01/27 04:45 - 05:00
   **   ~~~   ** ...target water temperature     = 53.33 C
   **   ~~~   ** ...hot water temperature        = 53.15 C
   **   ~~~   ** ...Target water temperature should be less than or equal to the hot water temperature. Verify temperature setpoints and schedules.
   ** Warning ** SimHVAC: Maximum iterations (20) exceeded for all HVAC loops, at ANNUAL, 01/04 13:53 - 14:00
   **   ~~~   ** The solution for one or more of the Air Loop HVAC systems did not appear to converge
   **   ~~~   ** Air System Named = CENTRAL SYSTEM did not converge for mass flow rate
   **   ~~~   ** Check values should be zero. Most Recent values listed first.
   **   ~~~   ** Demand-to-Supply interface mass flow rate check value iteration history trace: 4.450174E-002,4.450174E-002,4.450174E-002,4.450174E-002,4.450174E-002,4.450174E-002,4.450174E-002,4.450174E-002,4.450174E-002,4.450174E-002,
   **   ~~~   ** Supply-to-demand interface deck 1 mass flow rate check value iteration history trace: 4.450174E-002,4.450174E-002,4.450174E-002,4.450174E-002,4.450174E-002,4.450174E-002,4.450174E-002,4.450174E-002,4.450174E-002,4.450174E-002,
   **   ~~~   ** Air System Named = CENTRAL SYSTEM did not converge for energy
   **   ~~~   ** Check values should be zero. Most Recent values listed first.
   **   ~~~   ** Demand-to-Supply interface energy check value iteration history trace: 877.285170,877.285170,877.285170,877.285170,877.285170,877.285170,877.285170,877.285169,877.285169,877.285169,
   **   ~~~   ** Supply-to-demand interface deck 1 energy check value iteration history trace: 1633.858703,1633.858703,1633.858703,1633.858703,1633.858703,1633.858703,1633.858703,1633.858703,1633.858702,1633.858702,
   ** Warning ** SimHVAC: Maximum iterations (20) exceeded for all HVAC loops, at ANNUAL, 01/09 16:45 - 17:00
   **   ~~~   ** The solution for one or more of the Air Loop HVAC systems did not appear to converge
   **   ~~~   ** Air System Named = CENTRAL SYSTEM did not converge for mass flow rate
   **   ~~~   ** Check values should be zero. Most Recent values listed first.
   **   ~~~   ** Demand-to-Supply interface mass flow rate check value iteration history trace: 5.928913E-002,5.928913E-002,5.928913E-002,5.928913E-002,5.928913E-002,5.928913E-002,5.928913E-002,5.928913E-002,5.928913E-002,5.928913E-002,
   **   ~~~   ** Supply-to-demand interface deck 1 mass flow rate check value iteration history trace: 5.928913E-002,5.928913E-002,5.928913E-002,5.928913E-002,5.928913E-002,5.928913E-002,5.928913E-002,5.928913E-002,5.928913E-002,5.928913E-002,
   **   ~~~   ** Air System Named = CENTRAL SYSTEM did not converge for energy
   **   ~~~   ** Check values should be zero. Most Recent values listed first.
   **   ~~~   ** Demand-to-Supply interface energy check value iteration history trace: 1175.596134,1175.596134,1175.596134,1175.596134,1175.596134,1175.596134,1175.596134,1175.596134,1175.596134,1175.596134,
   **   ~~~   ** Supply-to-demand interface deck 1 energy check value iteration history trace: 1980.086860,1980.086860,1980.086860,1980.086860,1980.086860,1980.086860,1980.086860,1980.086860,1980.086860,1980.086859,
   ** Warning ** SimHVAC: Maximum iterations (20) exceeded for all HVAC loops, at ANNUAL, 01/12 08:30 - 08:45
   **   ~~~   ** The solution for one or more of the Air Loop HVAC systems did not appear to converge
   **   ~~~   ** Air System Named = CENTRAL SYSTEM did not converge for mass flow rate
   **   ~~~   ** Check values should be zero. Most Recent values listed first.
   **   ~~~   ** Demand-to-Supply interface mass flow rate check value iteration history trace: 3.471297E-002,3.471297E-002,3.471297E-002,3.471297E-002,3.471297E-002,3.471297E-002,3.471297E-002,3.471297E-002,3.471297E-002,3.471297E-002,
   **   ~~~   ** Supply-to-demand interface deck 1 mass flow rate check value iteration history trace: 3.471297E-002,3.471297E-002,3.471297E-002,3.471297E-002,3.471297E-002,3.471297E-002,3.471297E-002,3.471297E-002,3.471297E-002,3.471297E-002,
   **   ~~~   ** Air System Named = CENTRAL SYSTEM did not converge for energy
   **   ~~~   ** Check values should be zero. Most Recent values listed first.
   **   ~~~   ** Demand-to-Supply interface energy check value iteration history trace: 687.704817,687.704817,687.704817,687.704817,687.704817,687.704817,687.704816,687.704816,687.704816,687.704816,
   **   ~~~   ** Supply-to-demand interface deck 1 energy check value iteration history trace: 1257.126260,1257.126260,1257.126260,1257.126259,1257.126259,1257.126259,1257.126259,1257.126259,1257.126259,1257.126259,
   ** Warning ** SimHVAC: Maximum iterations (20) exceeded for all HVAC loops, at ANNUAL, 02/25 09:53 - 09:56
   **   ~~~   ** The solution for one or more of the Air Loop HVAC systems did not appear to converge
   **   ~~~   ** Air System Named = CENTRAL SYSTEM did not converge for mass flow rate
   **   ~~~   ** Check values should be zero. Most Recent values listed first.
   **   ~~~   ** Demand-to-Supply interface mass flow rate check value iteration history trace: 7.193141E-002,7.193141E-002,7.193141E-002,7.193141E-002,7.193141E-002,7.193141E-002,7.193141E-002,7.193141E-002,7.193141E-002,7.193141E-002,
   **   ~~~   ** Supply-to-demand interface deck 1 mass flow rate check value iteration history trace: 7.193141E-002,7.193141E-002,7.193141E-002,7.193141E-002,7.193141E-002,7.193141E-002,7.193141E-002,7.193141E-002,7.193141E-002,7.193141E-002,
   **   ~~~   ** Air System Named = CENTRAL SYSTEM did not converge for energy
   **   ~~~   ** Check values should be zero. Most Recent values listed first.
   **   ~~~   ** Demand-to-Supply interface energy check value iteration history trace: 1420.553199,1420.553199,1420.553199,1420.553199,1420.553199,1420.553199,1420.553199,1420.553199,1420.553199,1420.553199,
   **   ~~~   ** Supply-to-demand interface deck 1 energy check value iteration history trace: 2424.335692,2424.335692,2424.335692,2424.335692,2424.335692,2424.335692,2424.335691,2424.335691,2424.335691,2424.335691,
   ** Warning ** SimHVAC: Maximum iterations (20) exceeded for all HVAC loops, at ANNUAL, 03/06 06:15 - 06:22
   **   ~~~   ** The solution for one or more of the Air Loop HVAC systems did not appear to converge
   **   ~~~   ** Air System Named = CENTRAL SYSTEM did not converge for mass flow rate
   **   ~~~   ** Check values should be zero. Most Recent values listed first.
   **   ~~~   ** Demand-to-Supply interface mass flow rate check value iteration history trace: 6.512815E-002,6.512815E-002,6.512815E-002,6.512815E-002,6.512815E-002,6.512815E-002,6.512815E-002,6.512815E-002,6.512815E-002,6.512815E-002,
   **   ~~~   ** Supply-to-demand interface deck 1 mass flow rate check value iteration history trace: 6.512815E-002,6.512815E-002,6.512815E-002,6.512815E-002,6.512815E-002,6.512815E-002,6.512815E-002,6.512815E-002,6.512815E-002,6.512815E-002,
   **   ~~~   ** Air System Named = CENTRAL SYSTEM did not converge for energy
   **   ~~~   ** Check values should be zero. Most Recent values listed first.
   **   ~~~   ** Demand-to-Supply interface energy check value iteration history trace: 1289.329693,1289.329693,1289.329693,1289.329693,1289.329693,1289.329693,1289.329693,1289.329693,1289.329693,1289.329693,
   **   ~~~   ** Supply-to-demand interface deck 1 energy check value iteration history trace: 2348.724318,2348.724318,2348.724317,2348.724317,2348.724317,2348.724317,2348.724317,2348.724317,2348.724317,2348.724317,
   ** Warning ** SimHVAC: Maximum iterations (20) exceeded for all HVAC loops, at ANNUAL, 03/18 07:18 - 07:21
   **   ~~~   ** The solution for one or more of the Air Loop HVAC systems did not appear to converge
   **   ~~~   ** Air System Named = CENTRAL SYSTEM did not converge for mass flow rate
   **   ~~~   ** Check values should be zero. Most Recent values listed first.
   **   ~~~   ** Demand-to-Supply interface mass flow rate check value iteration history trace: 5.774626E-002,5.774626E-002,5.774626E-002,5.774626E-002,5.774626E-002,5.774626E-002,5.774626E-002,5.774626E-002,5.774626E-002,5.774626E-002,
   **   ~~~   ** Supply-to-demand interface deck 1 mass flow rate check value iteration history trace: 5.774626E-002,5.774626E-002,5.774626E-002,5.774626E-002,5.774626E-002,5.774626E-002,5.774626E-002,5.774626E-002,5.774626E-002,5.774626E-002,
   **   ~~~   ** Air System Named = CENTRAL SYSTEM did not converge for energy
   **   ~~~   ** Check values should be zero. Most Recent values listed first.
   **   ~~~   ** Demand-to-Supply interface energy check value iteration history trace: 1142.054077,1142.054077,1142.054077,1142.054077,1142.054077,1142.054077,1142.054077,1142.054077,1142.054077,1142.054077,
   **   ~~~   ** Supply-to-demand interface deck 1 energy check value iteration history trace: 1988.382349,1988.382349,1988.382349,1988.382349,1988.382349,1988.382349,1988.382349,1988.382349,1988.382349,1988.382348,
   ** Warning ** SimHVAC: Maximum iterations (20) exceeded for all HVAC loops, at ANNUAL, 03/30 08:00 - 08:15
   **   ~~~   ** The solution for one or more of the Air Loop HVAC systems did not appear to converge
   **   ~~~   ** Air System Named = CENTRAL SYSTEM did not converge for mass flow rate
   **   ~~~   ** Check values should be zero. Most Recent values listed first.
   **   ~~~   ** Demand-to-Supply interface mass flow rate check value iteration history trace: 7.241059E-002,7.241059E-002,7.241059E-002,7.241059E-002,7.241059E-002,7.241059E-002,7.241059E-002,7.241059E-002,7.241059E-002,7.241059E-002,
   **   ~~~   ** Supply-to-demand interface deck 1 mass flow rate check value iteration history trace: 7.241059E-002,7.241059E-002,7.241059E-002,7.241059E-002,7.241059E-002,7.241059E-002,7.241059E-002,7.241059E-002,7.241059E-002,7.241059E-002,
   **   ~~~   ** Air System Named = CENTRAL SYSTEM did not converge for energy
   **   ~~~   ** Check values should be zero. Most Recent values listed first.
   **   ~~~   ** Demand-to-Supply interface energy check value iteration history trace: 1434.969129,1434.969129,1434.969129,1434.969129,1434.969129,1434.969129,1434.969129,1434.969129,1434.969129,1434.969128,
   **   ~~~   ** Supply-to-demand interface deck 1 energy check value iteration history trace: 2456.225600,2456.225600,2456.225600,2456.225600,2456.225599,2456.225599,2456.225599,2456.225599,2456.225599,2456.225599,
   ** Warning ** SimHVAC: Maximum iterations (20) exceeded for all HVAC loops, at ANNUAL, 04/17 07:30 - 07:34
   **   ~~~   ** The solution for one or more of the Air Loop HVAC systems did not appear to converge
   **   ~~~   ** Air System Named = CENTRAL SYSTEM did not converge for mass flow rate
   **   ~~~   ** Check values should be zero. Most Recent values listed first.
   **   ~~~   ** Demand-to-Supply interface mass flow rate check value iteration history trace: 6.207305E-002,6.207305E-002,6.207305E-002,6.207305E-002,6.207305E-002,6.207305E-002,6.207305E-002,6.207305E-002,6.207305E-002,6.207305E-002,
   **   ~~~   ** Supply-to-demand interface deck 1 mass flow rate check value iteration history trace: 6.207305E-002,6.207305E-002,6.207305E-002,6.207305E-002,6.207305E-002,6.207305E-002,6.207305E-002,6.207305E-002,6.207305E-002,6.207305E-002,
   **   ~~~   ** Air System Named = CENTRAL SYSTEM did not converge for energy
   **   ~~~   ** Check values should be zero. Most Recent values listed first.
   **   ~~~   ** Demand-to-Supply interface energy check value iteration history trace: 1227.852321,1227.852321,1227.852321,1227.852321,1227.852321,1227.852320,1227.852320,1227.852320,1227.852320,1227.852320,
   **   ~~~   ** Supply-to-demand interface deck 1 energy check value iteration history trace: 2189.637339,2189.637339,2189.637339,2189.637339,2189.637339,2189.637339,2189.637339,2189.637339,2189.637339,2189.637338,
   ** Warning ** SimHVAC: Maximum iterations (20) exceeded for all HVAC loops, at ANNUAL, 04/21 09:08 - 09:10
   **   ~~~   ** The solution for one or more of the Air Loop HVAC systems did not appear to converge
   **   ~~~   ** Air System Named = CENTRAL SYSTEM did not converge for mass flow rate
   **   ~~~   ** Check values should be zero. Most Recent values listed first.
   **   ~~~   ** Demand-to-Supply interface mass flow rate check value iteration history trace: 1.689508E-002,1.689508E-002,1.689508E-002,1.689508E-002,1.689508E-002,1.689508E-002,1.689508E-002,1.689508E-002,1.689508E-002,1.689508E-002,
   **   ~~~   ** Supply-to-demand interface deck 1 mass flow rate check value iteration history trace: 1.689508E-002,1.689508E-002,1.689508E-002,1.689508E-002,1.689508E-002,1.689508E-002,1.689508E-002,1.689508E-002,1.689508E-002,1.689508E-002,
   **   ~~~   ** Air System Named = CENTRAL SYSTEM did not converge for energy
   **   ~~~   ** Check values should be zero. Most Recent values listed first.
   **   ~~~   ** Demand-to-Supply interface energy check value iteration history trace: 394.519500,394.519500,394.519500,394.519500,394.519500,394.519500,394.519500,394.519500,394.519500,394.519500,
   **   ~~~   ** Supply-to-demand interface deck 1 energy check value iteration history trace: 189.024011,189.024011,189.024011,189.024011,189.024011,189.024011,189.024011,189.024011,189.024011,189.024011,
   ** Warning ** SimHVAC: Maximum iterations (20) exceeded for all HVAC loops, at ANNUAL, 04/26 09:35 - 09:38
   **   ~~~   ** The solution for one or more of the Air Loop HVAC systems did not appear to converge
   **   ~~~   ** Air System Named = CENTRAL SYSTEM did not converge for mass flow rate
   **   ~~~   ** Check values should be zero. Most Recent values listed first.
   **   ~~~   ** Demand-to-Supply interface mass flow rate check value iteration history trace: 0.166989,0.166989,0.166989,0.166989,0.166989,0.166989,0.166989,0.166989,0.166989,0.166989,
   **   ~~~   ** Supply-to-demand interface deck 1 mass flow rate check value iteration history trace: 0.166989,0.166989,0.166989,0.166989,0.166989,0.166989,0.166989,0.166989,0.166989,0.166989,
   **   ~~~   ** Air System Named = CENTRAL SYSTEM did not converge for energy
   **   ~~~   ** Check values should be zero. Most Recent values listed first.
   **   ~~~   ** Demand-to-Supply interface energy check value iteration history trace: 3956.089980,3956.089980,3956.089981,3956.089981,3956.089982,3956.089982,3956.089983,3956.089983,3956.089984,3956.089984,
   **   ~~~   ** Supply-to-demand interface deck 1 energy check value iteration history trace: 1803.117702,1803.117702,1803.117703,1803.117703,1803.117703,1803.117703,1803.117703,1803.117704,1803.117704,1803.117704,
   ** Warning ** SimHVAC: Maximum iterations (20) exceeded for all HVAC loops, at ANNUAL, 11/10 16:38 - 16:41
   **   ~~~   ** The solution for one or more of the Air Loop HVAC systems did not appear to converge
   **   ~~~   ** Air System Named = CENTRAL SYSTEM did not converge for mass flow rate
   **   ~~~   ** Check values should be zero. Most Recent values listed first.
   **   ~~~   ** Demand-to-Supply interface mass flow rate check value iteration history trace: 2.329394E-002,2.329394E-002,2.329394E-002,2.329394E-002,2.329394E-002,2.329394E-002,2.329394E-002,2.329394E-002,2.329394E-002,2.329394E-002,
   **   ~~~   ** Supply-to-demand interface deck 1 mass flow rate check value iteration history trace: 2.329394E-002,2.329394E-002,2.329394E-002,2.329394E-002,2.329394E-002,2.329394E-002,2.329394E-002,2.329394E-002,2.329394E-002,2.329394E-002,
   **   ~~~   ** Air System Named = CENTRAL SYSTEM did not converge for energy
   **   ~~~   ** Check values should be zero. Most Recent values listed first.
   **   ~~~   ** Demand-to-Supply interface energy check value iteration history trace: 549.975344,549.975344,549.975344,549.975344,549.975344,549.975344,549.975344,549.975344,549.975344,549.975344,
   **   ~~~   ** Supply-to-demand interface deck 1 energy check value iteration history trace: 204.536452,204.536452,204.536452,204.536452,204.536452,204.536452,204.536452,204.536452,204.536452,204.536452,
   ** Warning ** SimHVAC: Maximum iterations (20) exceeded for all HVAC loops, at ANNUAL, 11/13 23:00 - 23:15
   **   ~~~   ** The solution for one or more of the Air Loop HVAC systems did not appear to converge
   **   ~~~   ** Air System Named = CENTRAL SYSTEM did not converge for mass flow rate
   **   ~~~   ** Check values should be zero. Most Recent values listed first.
   **   ~~~   ** Demand-to-Supply interface mass flow rate check value iteration history trace: 8.512297E-002,8.512297E-002,8.512297E-002,8.512297E-002,8.512297E-002,8.512297E-002,8.512297E-002,8.512297E-002,8.512297E-002,8.512297E-002,
   **   ~~~   ** Supply-to-demand interface deck 1 mass flow rate check value iteration history trace: 8.512297E-002,8.512297E-002,8.512297E-002,8.512297E-002,8.512297E-002,8.512297E-002,8.512297E-002,8.512297E-002,8.512297E-002,8.512297E-002,
   **   ~~~   ** Air System Named = CENTRAL SYSTEM did not converge for energy
   **   ~~~   ** Check values should be zero. Most Recent values listed first.
   **   ~~~   ** Demand-to-Supply interface energy check value iteration history trace: 1577.197264,1577.197263,1577.197263,1577.197263,1577.197263,1577.197263,1577.197263,1577.197263,1577.197263,1577.197263,
   **   ~~~   ** Supply-to-demand interface deck 1 energy check value iteration history trace: 2459.022082,2459.022082,2459.022082,2459.022081,2459.022081,2459.022081,2459.022081,2459.022081,2459.022081,2459.022080,
   ** Warning ** SimHVAC: Maximum iterations (20) exceeded for all HVAC loops, at ANNUAL, 12/09 10:00 - 10:15
   **   ~~~   ** The solution for one or more of the Air Loop HVAC systems did not appear to converge
   **   ~~~   ** Air System Named = CENTRAL SYSTEM did not converge for mass flow rate
   **   ~~~   ** Check values should be zero. Most Recent values listed first.
   **   ~~~   ** Demand-to-Supply interface mass flow rate check value iteration history trace: 9.963631E-002,9.963631E-002,9.963631E-002,9.963631E-002,9.963631E-002,9.963631E-002,9.963631E-002,9.963631E-002,9.963631E-002,9.963631E-002,
   **   ~~~   ** Supply-to-demand interface deck 1 mass flow rate check value iteration history trace: 9.963631E-002,9.963631E-002,9.963631E-002,9.963631E-002,9.963631E-002,9.963631E-002,9.963631E-002,9.963631E-002,9.963631E-002,9.963631E-002,
   **   ~~~   ** Air System Named = CENTRAL SYSTEM did not converge for energy
   **   ~~~   ** Check values should be zero. Most Recent values listed first.
   **   ~~~   ** Demand-to-Supply interface energy check value iteration history trace: 1974.485601,1974.485601,1974.485601,1974.485601,1974.485601,1974.485600,1974.485600,1974.485600,1974.485600,1974.485600,
   **   ~~~   ** Supply-to-demand interface deck 1 energy check value iteration history trace: 2959.800100,2959.800100,2959.800100,2959.800100,2959.800100,2959.800099,2959.800099,2959.800099,2959.800099,2959.800099,
   ************* Simulation Error Summary *************
   ** Warning ** The following Report Variables were requested but not generated -- check.rdd file
   **   ~~~   ** Either the IDF did not contain these elements, the variable name is misspelled,
   **   ~~~   ** or the requested variable is an advanced output which requires Output : Diagnostics, DisplayAdvancedReportVariables;
   ************* Key=*, VarName=BASEBOARD TOTAL HEATING ENERGY, Frequency=
   ************* Key=*, VarName=WATER HEATER NATURALGAS ENERGY, Frequency=
   ************* Key=*, VarName=COOLING COIL TOTAL HEATING ENERGY, Frequency=
   ************* There are 34 unused schedules in input.
   ************* There are 388 unused week schedules in input.
   ************* There are 396 unused day schedules in input.
   ************* Use Output:Diagnostics,DisplayUnusedSchedules; to see them.
   *************
   ************* ===== Recurring Error Summary =====
   ************* The following recurring error messages occurred.
   *************
   *************  ** Warning ** "TOTAL HOT WATER LOAD" - Target water temperature should be less than or equal to the hot water temperature error continues...
   *************  **   ~~~   **   This error occurred 65821 total times;
   *************  **   ~~~   **   during Warmup 0 times;
   *************  **   ~~~   **   during Sizing 0 times.
   *************  **   ~~~   **   Max=6.731398  Min=4.619973E-004
   *************
   *************
   ************* ===== Final Error Summary =====
   ************* The following error categories occurred.  Consider correcting or noting.
   ************* Nominally Unused Constructions
   ************* ..The nominally unused constructions warning is provided to alert you to potential conditions that can cause
   ************* ..extra time during simulation. Each construction is calculated by the algorithm indicated in the HeatBalanceAlgorithm
   ************* ..object. You may remove the constructions indicated (when you use the DisplayExtraWarnings option).
   *************
   ************* EnergyPlus Warmup Error Summary. During Warmup: 1 Warning; 0 Severe Errors.
   ************* EnergyPlus Sizing Error Summary. During Sizing: 4 Warning; 0 Severe Errors.
   ************* EnergyPlus Completed Successfully-- 65853 Warning; 0 Severe Errors; Elapsed Time=00hr 01min 37.90sec
