Program Version,EnergyPlus, Version 22.2.0-c249759bad, YMD=2023.09.01 20:03,
   ************* Beginning Zone Sizing Calculations
   ** Warning ** ProcessScheduleInput: Schedule:Constant="ALWAYS ON DISCRETE", Schedule Type Limits Name="ONOFF" not found -- will not be validated
   ** Warning ** Foundation:Kiva="KIVA FOUNDATION", no Interior Horizontal Insulation Material Name defined
   **   ~~~   ** Interior Horizontal Insulation Depth will not be used.
   ** Warning ** CheckUsedConstructions: There are 15 nominally unused constructions in input.
   **   ~~~   ** Each Unused construction is shown.
   ************* Construction=INTERIOR FLOOR
   ************* Construction=INTERIOR WINDOW
   ************* Construction=EXTERIOR DOOR
   ************* Construction=INTERIOR DOOR
   ************* Construction=GABLE CONSTRUCTION
   ************* Construction=CRAWL_FLOOR
   ************* Construction=INSULATED PIPE
   ************* Construction=PLAIN PIPE
   ************* Construction=TDD PIPE
   ************* Construction=TDD DOME
   ************* Construction=TDD DIFFUSER
   ************* Construction=CRAWL WALL
   ************* Construction=CEILING-FLOOR-LAYER
   ************* Construction=SLAB CONSTRUCTION W FULL R10 INSULATION
   ************* Construction=SLAB CONSTRUCTION W FULL R5 INSULATION
   ** Warning ** GetDXCoils: Coil:Heating:DX:SingleSpeed="DX_HEATING_COIL" curve values
   **   ~~~   ** ... Defrost Energy Input Ratio Function of Temperature Curve Name = DEFROSTEIR output is not equal to 1.0 (+ or - 10%) at rated conditions.
   **   ~~~   ** ... Curve output at rated conditions = 0.152
   ************* Beginning System Sizing Calculations
   ************* Beginning Plant Sizing Calculations
   ** Warning ** Coil:WaterHeating:AirToWaterHeatPump:Wrapped "HEAT PUMP WATER HEATER EVAPORATOR": Rated air volume flow rate per watt of rated total water heating capacity is out of range
   **   ~~~   ** Min Rated Vol Flow Per Watt=[4.027E-005], Rated Vol Flow Per Watt=[1.510E-004], Max Rated Vol Flow Per Watt=[8.056E-005]. See Input-Output Reference Manual for valid range.
   ************* SizeFan: : Potential issue with equipment sizing for Fan:OnOff HEAT PUMP WATER HEATER FAN
   **   ~~~   ** User-Specified Maximum Flow Rate [m3/s] = 0.22653
   **   ~~~   ** differs from Design Size Maximum Flow Rate [m3/s] = 7.55250E-002
   **   ~~~   ** This may, or may not, indicate mismatched component sizes.
   **   ~~~   ** Verify that the value entered is intended and is consistent with other components.
   ** Warning ** Water heater = WATER HEATER TANK:  Recovery Efficiency and Energy Factor could not be calculated during the test for standard ratings
   **   ~~~   ** Setpoint was never recovered and/or heater never turned on
   ** Warning ** Check input. Pump nominal power or motor efficiency is set to 0, for pump=MAINS PRESSURE
   ** Warning ** Output:Meter: invalid Key Name="ELECTRIC_RANGE:INTERIOREQUIPMENT:ELECTRICITY" - not found.
   ** Warning ** Output:Meter: invalid Key Name="ELECTRIC_DRYER:INTERIOREQUIPMENT:ELECTRICITY" - not found.
   ** Warning ** Output:Meter: invalid Key Name="HEATRECOVERY:ELECTRICITY" - not found.
   ** Warning ** Output:Meter: invalid Key Name="HEATING:NATURALGAS" - not found.
   ** Warning ** Output:Meter: invalid Key Name="WATERSYSTEMS:NATURALGAS" - not found.
   ** Warning ** Output:Meter: invalid Key Name="PROPANE:FACILITY" - not found.
   ** Warning ** Output:Meter: invalid Key Name="HEATING:PROPANE" - not found.
   ************* Testing Individual Branch Integrity
   ************* All Branches passed integrity testing
   ************* Testing Individual Supply Air Path Integrity
   ************* All Supply Air Paths passed integrity testing
   ************* Testing Individual Return Air Path Integrity
   ************* All Return Air Paths passed integrity testing
   ************* No node connection errors were found.
   ************* Beginning Simulation
   ** Warning ** AirflowNetwork::Solver::validate_distribution: Heat pump water heater is simulated along with an AirflowNetwork but is not included in the AirflowNetwork.
   ** Warning ** CalcEquipmentFlowRates: "TOTAL HOT WATER LOAD" - Target water temperature is greater than the hot water temperature by (4.49 C)
   **   ~~~   **  Environment=EXTREME_WINTER, at Simulation time=01/29 07:00 - 07:15
   **   ~~~   ** ...target water temperature     = 53.33 C
   **   ~~~   ** ...hot water temperature        = 48.85 C
   **   ~~~   ** ...Target water temperature should be less than or equal to the hot water temperature. Verify temperature setpoints and schedules.
   ** Warning ** SimHVAC: Maximum iterations (20) exceeded for all HVAC loops, at ANNUAL, 01/26 21:00 - 21:15
   **   ~~~   ** The solution for one or more of the Air Loop HVAC systems did not appear to converge
   **   ~~~   ** Air System Named = CENTRAL SYSTEM did not converge for mass flow rate
   **   ~~~   ** Check values should be zero. Most Recent values listed first.
   **   ~~~   ** Demand-to-Supply interface mass flow rate check value iteration history trace: 6.566760E-002,6.566760E-002,6.566760E-002,6.566760E-002,6.566760E-002,6.566760E-002,6.566760E-002,6.566760E-002,6.566760E-002,6.566760E-002,
   **   ~~~   ** Supply-to-demand interface deck 1 mass flow rate check value iteration history trace: 6.566760E-002,6.566760E-002,6.566760E-002,6.566760E-002,6.566760E-002,6.566760E-002,6.566760E-002,6.566760E-002,6.566760E-002,6.566760E-002,
   **   ~~~   ** Air System Named = CENTRAL SYSTEM did not converge for energy
   **   ~~~   ** Check values should be zero. Most Recent values listed first.
   **   ~~~   ** Demand-to-Supply interface energy check value iteration history trace: 1289.702661,1289.702661,1289.702661,1289.702661,1289.702661,1289.702661,1289.702661,1289.702661,1289.702661,1289.702660,
   **   ~~~   ** Supply-to-demand interface deck 1 energy check value iteration history trace: 2246.199825,2246.199825,2246.199825,2246.199825,2246.199825,2246.199825,2246.199825,2246.199825,2246.199825,2246.199824,
   ** Warning ** SimHVAC: Maximum iterations (20) exceeded for all HVAC loops, at ANNUAL, 01/27 19:45 - 20:00
   **   ~~~   ** The solution for one or more of the Air Loop HVAC systems did not appear to converge
   **   ~~~   ** Air System Named = CENTRAL SYSTEM did not converge for mass flow rate
   **   ~~~   ** Check values should be zero. Most Recent values listed first.
   **   ~~~   ** Demand-to-Supply interface mass flow rate check value iteration history trace: 9.612029E-002,9.612029E-002,9.612029E-002,9.612029E-002,9.612029E-002,9.612029E-002,9.612029E-002,9.612029E-002,9.612029E-002,9.612029E-002,
   **   ~~~   ** Supply-to-demand interface deck 1 mass flow rate check value iteration history trace: 9.612029E-002,9.612029E-002,9.612029E-002,9.612029E-002,9.612029E-002,9.612029E-002,9.612029E-002,9.612029E-002,9.612029E-002,9.612029E-002,
   **   ~~~   ** Air System Named = CENTRAL SYSTEM did not converge for energy
   **   ~~~   ** Check values should be zero. Most Recent values listed first.
   **   ~~~   ** Demand-to-Supply interface energy check value iteration history trace: 1885.072957,1885.072956,1885.072956,1885.072956,1885.072956,1885.072956,1885.072956,1885.072956,1885.072956,1885.072955,
   **   ~~~   ** Supply-to-demand interface deck 1 energy check value iteration history trace: 2862.368996,2862.368996,2862.368996,2862.368996,2862.368996,2862.368995,2862.368995,2862.368995,2862.368995,2862.368995,
   ** Warning ** SimHVAC: Maximum iterations (20) exceeded for all HVAC loops, at ANNUAL, 01/30 09:30 - 09:32
   **   ~~~   ** The solution for one or more of the Air Loop HVAC systems did not appear to converge
   **   ~~~   ** Air System Named = CENTRAL SYSTEM did not converge for mass flow rate
   **   ~~~   ** Check values should be zero. Most Recent values listed first.
   **   ~~~   ** Demand-to-Supply interface mass flow rate check value iteration history trace: 7.980072E-002,7.980072E-002,7.980072E-002,7.980072E-002,7.980072E-002,7.980072E-002,7.980072E-002,7.980072E-002,7.980072E-002,7.980072E-002,
   **   ~~~   ** Supply-to-demand interface deck 1 mass flow rate check value iteration history trace: 7.980072E-002,7.980072E-002,7.980072E-002,7.980072E-002,7.980072E-002,7.980072E-002,7.980072E-002,7.980072E-002,7.980072E-002,7.980072E-002,
   **   ~~~   ** Air System Named = CENTRAL SYSTEM did not converge for energy
   **   ~~~   ** Check values should be zero. Most Recent values listed first.
   **   ~~~   ** Demand-to-Supply interface energy check value iteration history trace: 1578.133830,1578.133830,1578.133830,1578.133830,1578.133830,1578.133830,1578.133830,1578.133830,1578.133830,1578.133830,
   **   ~~~   ** Supply-to-demand interface deck 1 energy check value iteration history trace: 2668.648068,2668.648067,2668.648067,2668.648067,2668.648067,2668.648067,2668.648067,2668.648067,2668.648067,2668.648066,
   ** Warning ** SimHVAC: Maximum iterations (20) exceeded for all HVAC loops, at ANNUAL, 02/07 20:40 - 20:45
   **   ~~~   ** The solution for one or more of the Air Loop HVAC systems did not appear to converge
   **   ~~~   ** Air System Named = CENTRAL SYSTEM did not converge for mass flow rate
   **   ~~~   ** Check values should be zero. Most Recent values listed first.
   **   ~~~   ** Demand-to-Supply interface mass flow rate check value iteration history trace: 9.857578E-002,9.857578E-002,9.857578E-002,9.857578E-002,9.857578E-002,9.857578E-002,9.857578E-002,9.857578E-002,9.857578E-002,9.857578E-002,
   **   ~~~   ** Supply-to-demand interface deck 1 mass flow rate check value iteration history trace: 9.857578E-002,9.857578E-002,9.857578E-002,9.857578E-002,9.857578E-002,9.857578E-002,9.857578E-002,9.857578E-002,9.857578E-002,9.857578E-002,
   **   ~~~   ** Air System Named = CENTRAL SYSTEM did not converge for energy
   **   ~~~   ** Check values should be zero. Most Recent values listed first.
   **   ~~~   ** Demand-to-Supply interface energy check value iteration history trace: 1948.030692,1948.030692,1948.030692,1948.030692,1948.030692,1948.030692,1948.030692,1948.030691,1948.030691,1948.030691,
   **   ~~~   ** Supply-to-demand interface deck 1 energy check value iteration history trace: 2970.534627,2970.534627,2970.534627,2970.534626,2970.534626,2970.534626,2970.534626,2970.534626,2970.534625,2970.534625,
   ** Warning ** SimHVAC: Maximum iterations (20) exceeded for all HVAC loops, at ANNUAL, 03/04 21:45 - 22:00
   **   ~~~   ** The solution for one or more of the Air Loop HVAC systems did not appear to converge
   **   ~~~   ** Air System Named = CENTRAL SYSTEM did not converge for mass flow rate
   **   ~~~   ** Check values should be zero. Most Recent values listed first.
   **   ~~~   ** Demand-to-Supply interface mass flow rate check value iteration history trace: 8.887503E-002,8.887503E-002,8.887503E-002,8.887503E-002,8.887503E-002,8.887503E-002,8.887503E-002,8.887503E-002,8.887503E-002,8.887503E-002,
   **   ~~~   ** Supply-to-demand interface deck 1 mass flow rate check value iteration history trace: 8.887503E-002,8.887503E-002,8.887503E-002,8.887503E-002,8.887503E-002,8.887503E-002,8.887503E-002,8.887503E-002,8.887503E-002,8.887503E-002,
   **   ~~~   ** Air System Named = CENTRAL SYSTEM did not converge for energy
   **   ~~~   ** Check values should be zero. Most Recent values listed first.
   **   ~~~   ** Demand-to-Supply interface energy check value iteration history trace: 1733.089659,1733.089659,1733.089659,1733.089659,1733.089659,1733.089659,1733.089659,1733.089659,1733.089659,1733.089659,
   **   ~~~   ** Supply-to-demand interface deck 1 energy check value iteration history trace: 2623.861923,2623.861923,2623.861922,2623.861922,2623.861922,2623.861922,2623.861922,2623.861922,2623.861922,2623.861922,
   ** Warning ** SimHVAC: Maximum iterations (20) exceeded for all HVAC loops, at ANNUAL, 03/08 23:23 - 23:30
   **   ~~~   ** The solution for one or more of the Air Loop HVAC systems did not appear to converge
   **   ~~~   ** Air System Named = CENTRAL SYSTEM did not converge for mass flow rate
   **   ~~~   ** Check values should be zero. Most Recent values listed first.
   **   ~~~   ** Demand-to-Supply interface mass flow rate check value iteration history trace: 8.632450E-002,8.632450E-002,8.632450E-002,8.632450E-002,8.632450E-002,8.632450E-002,8.632450E-002,8.632450E-002,8.632450E-002,8.632450E-002,
   **   ~~~   ** Supply-to-demand interface deck 1 mass flow rate check value iteration history trace: 8.632450E-002,8.632450E-002,8.632450E-002,8.632450E-002,8.632450E-002,8.632450E-002,8.632450E-002,8.632450E-002,8.632450E-002,8.632450E-002,
   **   ~~~   ** Air System Named = CENTRAL SYSTEM did not converge for energy
   **   ~~~   ** Check values should be zero. Most Recent values listed first.
   **   ~~~   ** Demand-to-Supply interface energy check value iteration history trace: 1620.487732,1620.487732,1620.487732,1620.487732,1620.487732,1620.487732,1620.487732,1620.487731,1620.487731,1620.487731,
   **   ~~~   ** Supply-to-demand interface deck 1 energy check value iteration history trace: 2511.034867,2511.034867,2511.034867,2511.034866,2511.034866,2511.034866,2511.034866,2511.034866,2511.034866,2511.034865,
   ** Warning ** SimHVAC: Maximum iterations (20) exceeded for all HVAC loops, at ANNUAL, 04/03 23:08 - 23:15
   **   ~~~   ** The solution for one or more of the Air Loop HVAC systems did not appear to converge
   **   ~~~   ** Air System Named = CENTRAL SYSTEM did not converge for mass flow rate
   **   ~~~   ** Check values should be zero. Most Recent values listed first.
   **   ~~~   ** Demand-to-Supply interface mass flow rate check value iteration history trace: 0.121200,0.121200,0.121200,0.121200,0.121200,0.121200,0.121200,0.121200,0.121200,0.121200,
   **   ~~~   ** Supply-to-demand interface deck 1 mass flow rate check value iteration history trace: 0.121200,0.121200,0.121200,0.121200,0.121200,0.121200,0.121200,0.121200,0.121200,0.121200,
   **   ~~~   ** Air System Named = CENTRAL SYSTEM did not converge for energy
   **   ~~~   ** Check values should be zero. Most Recent values listed first.
   **   ~~~   ** Demand-to-Supply interface energy check value iteration history trace: 3011.401453,3011.401453,3011.401454,3011.401454,3011.401455,3011.401455,3011.401456,3011.401457,3011.401457,3011.401458,
   **   ~~~   ** Supply-to-demand interface deck 1 energy check value iteration history trace: 1336.027758,1336.027759,1336.027759,1336.027759,1336.027759,1336.027760,1336.027760,1336.027760,1336.027760,1336.027761,
   ** Warning ** SimHVAC: Maximum iterations (20) exceeded for all HVAC loops, at ANNUAL, 04/04 07:38 - 07:41
   **   ~~~   ** The solution for one or more of the Air Loop HVAC systems did not appear to converge
   **   ~~~   ** Air System Named = CENTRAL SYSTEM did not converge for mass flow rate
   **   ~~~   ** Check values should be zero. Most Recent values listed first.
   **   ~~~   ** Demand-to-Supply interface mass flow rate check value iteration history trace: 0.364027,0.364027,0.364027,0.364027,0.364027,0.364027,0.364027,0.364027,0.364027,0.364027,
   **   ~~~   ** Supply-to-demand interface deck 1 mass flow rate check value iteration history trace: 0.364027,0.364027,0.364027,0.364027,0.364027,0.364027,0.364027,0.364027,0.364027,0.364027,
   **   ~~~   ** Air System Named = CENTRAL SYSTEM did not converge for energy
   **   ~~~   ** Check values should be zero. Most Recent values listed first.
   **   ~~~   ** Demand-to-Supply interface energy check value iteration history trace: 8728.318946,8728.318948,8728.318950,8728.318952,8728.318954,8728.318956,8728.318958,8728.318960,8728.318962,8728.318964,
   **   ~~~   ** Supply-to-demand interface deck 1 energy check value iteration history trace: 4740.700980,4740.700981,4740.700982,4740.700983,4740.700984,4740.700986,4740.700987,4740.700988,4740.700989,4740.700990,
   ** Warning ** SimHVAC: Maximum iterations (20) exceeded for all HVAC loops, at ANNUAL, 04/10 09:34 - 09:36
   **   ~~~   ** The solution for one or more of the Air Loop HVAC systems did not appear to converge
   **   ~~~   ** Air System Named = CENTRAL SYSTEM did not converge for mass flow rate
   **   ~~~   ** Check values should be zero. Most Recent values listed first.
   **   ~~~   ** Demand-to-Supply interface mass flow rate check value iteration history trace: 0.261978,0.261978,0.261978,0.261978,0.261978,0.261978,0.261978,0.261978,0.261978,0.261978,
   **   ~~~   ** Supply-to-demand interface deck 1 mass flow rate check value iteration history trace: 0.261978,0.261978,0.261978,0.261978,0.261978,0.261978,0.261978,0.261978,0.261978,0.261978,
   **   ~~~   ** Air System Named = CENTRAL SYSTEM did not converge for energy
   **   ~~~   ** Check values should be zero. Most Recent values listed first.
   **   ~~~   ** Demand-to-Supply interface energy check value iteration history trace: 6214.588730,6214.588731,6214.588731,6214.588732,6214.588733,6214.588733,6214.588734,6214.588735,6214.588735,6214.588736,
   **   ~~~   ** Supply-to-demand interface deck 1 energy check value iteration history trace: 3069.381523,3069.381523,3069.381524,3069.381524,3069.381524,3069.381525,3069.381525,3069.381525,3069.381525,3069.381526,
   ** Warning ** SimHVAC: Maximum iterations (20) exceeded for all HVAC loops, at ANNUAL, 04/10 09:53 - 09:55
   **   ~~~   ** The solution for one or more of the Air Loop HVAC systems did not appear to converge
   **   ~~~   ** Air System Named = CENTRAL SYSTEM did not converge for mass flow rate
   **   ~~~   ** Check values should be zero. Most Recent values listed first.
   **   ~~~   ** Demand-to-Supply interface mass flow rate check value iteration history trace: 0.285541,0.285541,0.285541,0.285541,0.285541,0.285541,0.285541,0.285541,0.285541,0.285541,
   **   ~~~   ** Supply-to-demand interface deck 1 mass flow rate check value iteration history trace: 0.285541,0.285541,0.285541,0.285541,0.285541,0.285541,0.285541,0.285541,0.285541,0.285541,
   **   ~~~   ** Air System Named = CENTRAL SYSTEM did not converge for energy
   **   ~~~   ** Check values should be zero. Most Recent values listed first.
   **   ~~~   ** Demand-to-Supply interface energy check value iteration history trace: 6796.957021,6796.957022,6796.957023,6796.957024,6796.957025,6796.957026,6796.957027,6796.957028,6796.957029,6796.957030,
   **   ~~~   ** Supply-to-demand interface deck 1 energy check value iteration history trace: 3346.938856,3346.938857,3346.938857,3346.938858,3346.938858,3346.938859,3346.938859,3346.938860,3346.938860,3346.938861,
   ** Warning ** SimHVAC: Maximum iterations (20) exceeded for all HVAC loops, at ANNUAL, 11/19 12:00 - 12:15
   **   ~~~   ** The solution for one or more of the Air Loop HVAC systems did not appear to converge
   **   ~~~   ** Air System Named = CENTRAL SYSTEM did not converge for mass flow rate
   **   ~~~   ** Check values should be zero. Most Recent values listed first.
   **   ~~~   ** Demand-to-Supply interface mass flow rate check value iteration history trace: 2.339588E-002,2.339588E-002,2.339588E-002,2.339588E-002,2.339588E-002,2.339588E-002,2.339588E-002,2.339588E-002,2.339588E-002,2.339588E-002,
   **   ~~~   ** Supply-to-demand interface deck 1 mass flow rate check value iteration history trace: 2.339588E-002,2.339588E-002,2.339588E-002,2.339588E-002,2.339588E-002,2.339588E-002,2.339588E-002,2.339588E-002,2.339588E-002,2.339588E-002,
   **   ~~~   ** Air System Named = CENTRAL SYSTEM did not converge for energy
   **   ~~~   ** Check values should be zero. Most Recent values listed first.
   **   ~~~   ** Demand-to-Supply interface energy check value iteration history trace: 548.869081,548.869081,548.869081,548.869081,548.869081,548.869081,548.869081,548.869081,548.869081,548.869081,
   **   ~~~   ** Supply-to-demand interface deck 1 energy check value iteration history trace: 244.307469,244.307469,244.307469,244.307469,244.307469,244.307469,244.307469,244.307469,244.307469,244.307469,
   ** Warning ** SimHVAC: Maximum iterations (20) exceeded for all HVAC loops, at ANNUAL, 11/20 17:45 - 18:00
   **   ~~~   ** The solution for one or more of the Air Loop HVAC systems did not appear to converge
   **   ~~~   ** Air System Named = CENTRAL SYSTEM did not converge for mass flow rate
   **   ~~~   ** Check values should be zero. Most Recent values listed first.
   **   ~~~   ** Demand-to-Supply interface mass flow rate check value iteration history trace: 0.166833,0.166833,0.166833,0.166833,0.166833,0.166833,0.166833,0.166833,0.166833,0.166833,
   **   ~~~   ** Supply-to-demand interface deck 1 mass flow rate check value iteration history trace: 0.166833,0.166833,0.166833,0.166833,0.166833,0.166833,0.166833,0.166833,0.166833,0.166833,
   **   ~~~   ** Air System Named = CENTRAL SYSTEM did not converge for energy
   **   ~~~   ** Check values should be zero. Most Recent values listed first.
   **   ~~~   ** Demand-to-Supply interface energy check value iteration history trace: 4062.776267,4062.776268,4062.776269,4062.776269,4062.776270,4062.776270,4062.776271,4062.776272,4062.776272,4062.776273,
   **   ~~~   ** Supply-to-demand interface deck 1 energy check value iteration history trace: 1925.831685,1925.831685,1925.831686,1925.831686,1925.831686,1925.831687,1925.831687,1925.831687,1925.831688,1925.831688,
   ** Warning ** SimHVAC: Maximum iterations (20) exceeded for all HVAC loops, at ANNUAL, 11/23 16:23 - 16:30
   **   ~~~   ** The solution for one or more of the Air Loop HVAC systems did not appear to converge
   **   ~~~   ** Air System Named = CENTRAL SYSTEM did not converge for mass flow rate
   **   ~~~   ** Check values should be zero. Most Recent values listed first.
   **   ~~~   ** Demand-to-Supply interface mass flow rate check value iteration history trace: 0.110309,0.110309,0.110309,0.110309,0.110309,0.110309,0.110309,0.110309,0.110309,0.110309,
   **   ~~~   ** Supply-to-demand interface deck 1 mass flow rate check value iteration history trace: 0.110309,0.110309,0.110309,0.110309,0.110309,0.110309,0.110309,0.110309,0.110309,0.110309,
   **   ~~~   ** Air System Named = CENTRAL SYSTEM did not converge for energy
   **   ~~~   ** Check values should be zero. Most Recent values listed first.
   **   ~~~   ** Demand-to-Supply interface energy check value iteration history trace: 2585.187771,2585.187771,2585.187772,2585.187772,2585.187772,2585.187772,2585.187772,2585.187772,2585.187772,2585.187773,
   **   ~~~   ** Supply-to-demand interface deck 1 energy check value iteration history trace: 1366.810439,1366.810439,1366.810439,1366.810439,1366.810440,1366.810440,1366.810440,1366.810440,1366.810440,1366.810440,
   ** Warning ** SimHVAC: Maximum iterations (20) exceeded for all HVAC loops, at ANNUAL, 11/23 19:30 - 19:45
   **   ~~~   ** The solution for one or more of the Air Loop HVAC systems did not appear to converge
   **   ~~~   ** Air System Named = CENTRAL SYSTEM did not converge for mass flow rate
   **   ~~~   ** Check values should be zero. Most Recent values listed first.
   **   ~~~   ** Demand-to-Supply interface mass flow rate check value iteration history trace: 8.559237E-002,8.559237E-002,8.559237E-002,8.559237E-002,8.559237E-002,8.559237E-002,8.559237E-002,8.559237E-002,8.559237E-002,8.559237E-002,
   **   ~~~   ** Supply-to-demand interface deck 1 mass flow rate check value iteration history trace: 8.559237E-002,8.559237E-002,8.559237E-002,8.559237E-002,8.559237E-002,8.559237E-002,8.559237E-002,8.559237E-002,8.559237E-002,8.559237E-002,
   **   ~~~   ** Air System Named = CENTRAL SYSTEM did not converge for energy
   **   ~~~   ** Check values should be zero. Most Recent values listed first.
   **   ~~~   ** Demand-to-Supply interface energy check value iteration history trace: 2020.923093,2020.923093,2020.923094,2020.923094,2020.923094,2020.923094,2020.923094,2020.923095,2020.923095,2020.923095,
   **   ~~~   ** Supply-to-demand interface deck 1 energy check value iteration history trace: 1020.109662,1020.109662,1020.109662,1020.109662,1020.109662,1020.109662,1020.109662,1020.109662,1020.109662,1020.109662,
   ************* Simulation Error Summary *************
   ** Warning ** The following Report Variables were requested but not generated -- check.rdd file
   **   ~~~   ** Either the IDF did not contain these elements, the variable name is misspelled,
   **   ~~~   ** or the requested variable is an advanced output which requires Output : Diagnostics, DisplayAdvancedReportVariables;
   ************* Key=*, VarName=BASEBOARD TOTAL HEATING ENERGY, Frequency=
   ************* Key=*, VarName=WATER HEATER NATURALGAS ENERGY, Frequency=
   ************* Key=*, VarName=COOLING COIL TOTAL HEATING ENERGY, Frequency=
   ************* There are 34 unused schedules in input.
   ************* There are 388 unused week schedules in input.
   ************* There are 396 unused day schedules in input.
   ************* Use Output:Diagnostics,DisplayUnusedSchedules; to see them.
   *************
   ************* ===== Recurring Error Summary =====
   ************* The following recurring error messages occurred.
   *************
   *************  ** Warning ** "TOTAL HOT WATER LOAD" - Target water temperature should be less than or equal to the hot water temperature error continues...
   *************  **   ~~~   **   This error occurred 186993 total times;
   *************  **   ~~~   **   during Warmup 0 times;
   *************  **   ~~~   **   during Sizing 0 times.
   *************  **   ~~~   **   Max=11.357449  Min=5.500150E-005
   *************
   *************  ** Warning ** SimHVAC: Exceeding Maximum iterations for all HVAC loops, during ANNUAL continues
   *************  **   ~~~   **   This error occurred 3 total times;
   *************  **   ~~~   **   during Warmup 0 times;
   *************  **   ~~~   **   during Sizing 0 times.
   *************
   *************
   ************* ===== Final Error Summary =====
   ************* The following error categories occurred.  Consider correcting or noting.
   ************* Nominally Unused Constructions
   ************* ..The nominally unused constructions warning is provided to alert you to potential conditions that can cause
   ************* ..extra time during simulation. Each construction is calculated by the algorithm indicated in the HeatBalanceAlgorithm
   ************* ..object. You may remove the constructions indicated (when you use the DisplayExtraWarnings option).
   *************
   ************* EnergyPlus Warmup Error Summary. During Warmup: 1 Warning; 0 Severe Errors.
   ************* EnergyPlus Sizing Error Summary. During Sizing: 4 Warning; 0 Severe Errors.
   ************* EnergyPlus Completed Successfully-- 187027 Warning; 0 Severe Errors; Elapsed Time=00hr 01min 45.66sec
