Program Version,EnergyPlus, Version 22.2.0-c249759bad, YMD=2023.09.01 17:18,
   ************* Beginning Zone Sizing Calculations
   ** Warning ** ProcessScheduleInput: Schedule:Constant="ALWAYS ON DISCRETE", Schedule Type Limits Name="ONOFF" not found -- will not be validated
   ** Warning ** Foundation:Kiva="KIVA FOUNDATION", no Interior Horizontal Insulation Material Name defined
   **   ~~~   ** Interior Horizontal Insulation Depth will not be used.
   ** Warning ** CheckUsedConstructions: There are 15 nominally unused constructions in input.
   **   ~~~   ** Each Unused construction is shown.
   ************* Construction=INTERIOR FLOOR
   ************* Construction=INTERIOR WINDOW
   ************* Construction=EXTERIOR DOOR
   ************* Construction=INTERIOR DOOR
   ************* Construction=GABLE CONSTRUCTION
   ************* Construction=CRAWL_FLOOR
   ************* Construction=INSULATED PIPE
   ************* Construction=PLAIN PIPE
   ************* Construction=TDD PIPE
   ************* Construction=TDD DOME
   ************* Construction=TDD DIFFUSER
   ************* Construction=CRAWL WALL
   ************* Construction=CEILING-FLOOR-LAYER
   ************* Construction=SLAB CONSTRUCTION W FULL R10 INSULATION
   ************* Construction=SLAB CONSTRUCTION W FULL R5 INSULATION
   ** Warning ** GetDXCoils: Coil:Heating:DX:SingleSpeed="DX_HEATING_COIL" curve values
   **   ~~~   ** ... Defrost Energy Input Ratio Function of Temperature Curve Name = DEFROSTEIR output is not equal to 1.0 (+ or - 10%) at rated conditions.
   **   ~~~   ** ... Curve output at rated conditions = 0.152
   ************* Beginning System Sizing Calculations
   ************* Beginning Plant Sizing Calculations
   ** Warning ** SizeDXCoil Coil:Cooling:DX:SingleSpeed DX_COOLING_COIL
   **   ~~~   ** ...Gross Rated Total Cooling Capacity [W] will be limited by the maximum rated volume flow per rated total capacity ratio.
   **   ~~~   ** ...DX coil volume flow rate ( m3/s ) = 0.429564
   **   ~~~   ** ...Requested capacity ( W ) = 6680.041
   **   ~~~   ** ...Requested flow/capacity ratio ( m3/s/W ) = 6.430E-005
   **   ~~~   ** ...Maximum flow/capacity ratio ( m3/s/W ) = 6.041E-005
   **   ~~~   ** ...Adjusted capacity ( W ) = 7110.822
   ** Warning ** Coil:WaterHeating:AirToWaterHeatPump:Wrapped "HEAT PUMP WATER HEATER EVAPORATOR": Rated air volume flow rate per watt of rated total water heating capacity is out of range
   **   ~~~   ** Min Rated Vol Flow Per Watt=[4.027E-005], Rated Vol Flow Per Watt=[1.510E-004], Max Rated Vol Flow Per Watt=[8.056E-005]. See Input-Output Reference Manual for valid range.
   ************* SizeFan: : Potential issue with equipment sizing for Fan:OnOff HEAT PUMP WATER HEATER FAN
   **   ~~~   ** User-Specified Maximum Flow Rate [m3/s] = 0.22653
   **   ~~~   ** differs from Design Size Maximum Flow Rate [m3/s] = 7.55250E-002
   **   ~~~   ** This may, or may not, indicate mismatched component sizes.
   **   ~~~   ** Verify that the value entered is intended and is consistent with other components.
   ** Warning ** Water heater = WATER HEATER TANK:  Recovery Efficiency and Energy Factor could not be calculated during the test for standard ratings
   **   ~~~   ** Setpoint was never recovered and/or heater never turned on
   ** Warning ** Check input. Pump nominal power or motor efficiency is set to 0, for pump=MAINS PRESSURE
   ** Warning ** Output:Meter: invalid Key Name="ELECTRIC_RANGE:INTERIOREQUIPMENT:ELECTRICITY" - not found.
   ** Warning ** Output:Meter: invalid Key Name="ELECTRIC_DRYER:INTERIOREQUIPMENT:ELECTRICITY" - not found.
   ** Warning ** Output:Meter: invalid Key Name="HEATRECOVERY:ELECTRICITY" - not found.
   ** Warning ** Output:Meter: invalid Key Name="HEATING:NATURALGAS" - not found.
   ** Warning ** Output:Meter: invalid Key Name="WATERSYSTEMS:NATURALGAS" - not found.
   ** Warning ** Output:Meter: invalid Key Name="PROPANE:FACILITY" - not found.
   ** Warning ** Output:Meter: invalid Key Name="HEATING:PROPANE" - not found.
   ************* Testing Individual Branch Integrity
   ************* All Branches passed integrity testing
   ************* Testing Individual Supply Air Path Integrity
   ************* All Supply Air Paths passed integrity testing
   ************* Testing Individual Return Air Path Integrity
   ************* All Return Air Paths passed integrity testing
   ************* No node connection errors were found.
   ************* Beginning Simulation
   ** Warning ** AirflowNetwork::Solver::validate_distribution: Heat pump water heater is simulated along with an AirflowNetwork but is not included in the AirflowNetwork.
   ** Severe  ** CheckWarmupConvergence: Loads Initialization, Zone="ATTIC" did not converge after 25 warmup days.
   **   ~~~   ** See Warmup Convergence Information in .eio file for details.
   **   ~~~   ** ...Environment(SizingPeriod)="EXTREME_WINTER"
   **   ~~~   ** ..Max Temp Comparison = 0.14 vs Temperature Convergence Tolerance=5.00E-002 - Fail Convergence
   **   ~~~   ** ..Min Temp Comparison = 1.43E-003 vs Temperature Convergence Tolerance=5.00E-002 - Pass Convergence
   **   ~~~   ** ..Max Heat Load Comparison = 0.0000 vs Loads Convergence Tolerance=5.00E-002 - Pass Convergence
   **   ~~~   ** ..Max Cool Load Comparison = 0.0000 vs Loads Convergence Tolerance=5.00E-002 - Pass Convergence
   ** Warning ** CalcEquipmentFlowRates: "TOTAL HOT WATER LOAD" - Target water temperature is greater than the hot water temperature by (0.69 C)
   **   ~~~   **  Environment=EXTREME_WINTER, at Simulation time=01/06 06:00 - 06:15
   **   ~~~   ** ...target water temperature     = 53.33 C
   **   ~~~   ** ...hot water temperature        = 52.64 C
   **   ~~~   ** ...Target water temperature should be less than or equal to the hot water temperature. Verify temperature setpoints and schedules.
   ** Warning ** SimHVAC: Maximum iterations (20) exceeded for all HVAC loops, at EXTREME_SUMMER, 07/19 04:15 - 04:30
   **   ~~~   ** The solution for one or more of the Air Loop HVAC systems did not appear to converge
   **   ~~~   ** Air System Named = CENTRAL SYSTEM did not converge for mass flow rate
   **   ~~~   ** Check values should be zero. Most Recent values listed first.
   **   ~~~   ** Demand-to-Supply interface mass flow rate check value iteration history trace: 0.111585,0.111585,0.111585,0.111585,0.111585,0.111585,0.111585,0.111585,0.111585,0.111585,
   **   ~~~   ** Supply-to-demand interface deck 1 mass flow rate check value iteration history trace: 0.111585,0.111585,0.111585,0.111585,0.111585,0.111585,0.111585,0.111585,0.111585,0.111585,
   **   ~~~   ** Air System Named = CENTRAL SYSTEM did not converge for energy
   **   ~~~   ** Check values should be zero. Most Recent values listed first.
   **   ~~~   ** Demand-to-Supply interface energy check value iteration history trace: 2804.396366,2804.396367,2804.396368,2804.396370,2804.396371,2804.396372,2804.396373,2804.396375,2804.396376,2804.396377,
   **   ~~~   ** Supply-to-demand interface deck 1 energy check value iteration history trace: 1569.334906,1569.334907,1569.334907,1569.334908,1569.334909,1569.334909,1569.334910,1569.334911,1569.334912,1569.334912,
   ** Warning ** SimHVAC: Maximum iterations (20) exceeded for all HVAC loops, at ANNUAL, 01/01 18:30 - 18:45
   **   ~~~   ** The solution for one or more of the Air Loop HVAC systems did not appear to converge
   **   ~~~   ** Air System Named = CENTRAL SYSTEM did not converge for mass flow rate
   **   ~~~   ** Check values should be zero. Most Recent values listed first.
   **   ~~~   ** Demand-to-Supply interface mass flow rate check value iteration history trace: 8.931760E-002,8.931760E-002,8.931760E-002,8.931760E-002,8.931760E-002,8.931760E-002,8.931760E-002,8.931760E-002,8.931760E-002,8.931760E-002,
   **   ~~~   ** Supply-to-demand interface deck 1 mass flow rate check value iteration history trace: 8.931760E-002,8.931760E-002,8.931760E-002,8.931760E-002,8.931760E-002,8.931760E-002,8.931760E-002,8.931760E-002,8.931760E-002,8.931760E-002,
   **   ~~~   ** Air System Named = CENTRAL SYSTEM did not converge for energy
   **   ~~~   ** Check values should be zero. Most Recent values listed first.
   **   ~~~   ** Demand-to-Supply interface energy check value iteration history trace: 1775.144982,1775.144982,1775.144982,1775.144982,1775.144982,1775.144982,1775.144981,1775.144981,1775.144981,1775.144981,
   **   ~~~   ** Supply-to-demand interface deck 1 energy check value iteration history trace: 2763.244162,2763.244162,2763.244162,2763.244161,2763.244161,2763.244161,2763.244161,2763.244161,2763.244160,2763.244160,
   ** Warning ** SimHVAC: Maximum iterations (20) exceeded for all HVAC loops, at ANNUAL, 01/24 21:05 - 21:10
   **   ~~~   ** The solution for one or more of the Air Loop HVAC systems did not appear to converge
   **   ~~~   ** Air System Named = CENTRAL SYSTEM did not converge for mass flow rate
   **   ~~~   ** Check values should be zero. Most Recent values listed first.
   **   ~~~   ** Demand-to-Supply interface mass flow rate check value iteration history trace: 9.552034E-002,9.552034E-002,9.552034E-002,9.552034E-002,9.552034E-002,9.552034E-002,9.552034E-002,9.552034E-002,9.552034E-002,9.552034E-002,
   **   ~~~   ** Supply-to-demand interface deck 1 mass flow rate check value iteration history trace: 9.552034E-002,9.552034E-002,9.552034E-002,9.552034E-002,9.552034E-002,9.552034E-002,9.552034E-002,9.552034E-002,9.552034E-002,9.552034E-002,
   **   ~~~   ** Air System Named = CENTRAL SYSTEM did not converge for energy
   **   ~~~   ** Check values should be zero. Most Recent values listed first.
   **   ~~~   ** Demand-to-Supply interface energy check value iteration history trace: 1891.573424,1891.573424,1891.573424,1891.573424,1891.573424,1891.573423,1891.573423,1891.573423,1891.573423,1891.573423,
   **   ~~~   ** Supply-to-demand interface deck 1 energy check value iteration history trace: 2842.280433,2842.280433,2842.280432,2842.280432,2842.280432,2842.280432,2842.280432,2842.280431,2842.280431,2842.280431,
   ** Warning ** SimHVAC: Maximum iterations (20) exceeded for all HVAC loops, at ANNUAL, 01/30 13:00 - 13:15
   **   ~~~   ** The solution for one or more of the Air Loop HVAC systems did not appear to converge
   **   ~~~   ** Air System Named = CENTRAL SYSTEM did not converge for mass flow rate
   **   ~~~   ** Check values should be zero. Most Recent values listed first.
   **   ~~~   ** Demand-to-Supply interface mass flow rate check value iteration history trace: 2.808694E-002,2.808694E-002,2.808694E-002,2.808694E-002,2.808694E-002,2.808694E-002,2.808694E-002,2.808694E-002,2.808694E-002,2.808694E-002,
   **   ~~~   ** Supply-to-demand interface deck 1 mass flow rate check value iteration history trace: 2.808694E-002,2.808694E-002,2.808694E-002,2.808694E-002,2.808694E-002,2.808694E-002,2.808694E-002,2.808694E-002,2.808694E-002,2.808694E-002,
   **   ~~~   ** Air System Named = CENTRAL SYSTEM did not converge for energy
   **   ~~~   ** Check values should be zero. Most Recent values listed first.
   **   ~~~   ** Demand-to-Supply interface energy check value iteration history trace: 556.591471,556.591471,556.591471,556.591471,556.591471,556.591471,556.591471,556.591471,556.591471,556.591471,
   **   ~~~   ** Supply-to-demand interface deck 1 energy check value iteration history trace: 865.439859,865.439859,865.439859,865.439859,865.439859,865.439859,865.439859,865.439859,865.439859,865.439859,
   ** Warning ** SimHVAC: Maximum iterations (20) exceeded for all HVAC loops, at ANNUAL, 02/21 13:45 - 14:00
   **   ~~~   ** The solution for one or more of the Air Loop HVAC systems did not appear to converge
   **   ~~~   ** Air System Named = CENTRAL SYSTEM did not converge for mass flow rate
   **   ~~~   ** Check values should be zero. Most Recent values listed first.
   **   ~~~   ** Demand-to-Supply interface mass flow rate check value iteration history trace: 6.890924E-002,6.890924E-002,6.890924E-002,6.890924E-002,6.890924E-002,6.890924E-002,6.890924E-002,6.890924E-002,6.890924E-002,6.890924E-002,
   **   ~~~   ** Supply-to-demand interface deck 1 mass flow rate check value iteration history trace: 6.890924E-002,6.890924E-002,6.890924E-002,6.890924E-002,6.890924E-002,6.890924E-002,6.890924E-002,6.890924E-002,6.890924E-002,6.890924E-002,
   **   ~~~   ** Air System Named = CENTRAL SYSTEM did not converge for energy
   **   ~~~   ** Check values should be zero. Most Recent values listed first.
   **   ~~~   ** Demand-to-Supply interface energy check value iteration history trace: 1363.380534,1363.380534,1363.380534,1363.380534,1363.380533,1363.380533,1363.380533,1363.380533,1363.380533,1363.380533,
   **   ~~~   ** Supply-to-demand interface deck 1 energy check value iteration history trace: 2119.169335,2119.169335,2119.169335,2119.169335,2119.169335,2119.169335,2119.169335,2119.169334,2119.169334,2119.169334,
   ** Warning ** SimHVAC: Maximum iterations (20) exceeded for all HVAC loops, at ANNUAL, 02/25 12:10 - 12:15
   **   ~~~   ** The solution for one or more of the Air Loop HVAC systems did not appear to converge
   **   ~~~   ** Air System Named = CENTRAL SYSTEM did not converge for mass flow rate
   **   ~~~   ** Check values should be zero. Most Recent values listed first.
   **   ~~~   ** Demand-to-Supply interface mass flow rate check value iteration history trace: 5.572015E-002,5.572015E-002,5.572015E-002,5.572015E-002,5.572015E-002,5.572015E-002,5.572015E-002,5.572015E-002,5.572015E-002,5.572015E-002,
   **   ~~~   ** Supply-to-demand interface deck 1 mass flow rate check value iteration history trace: 5.572015E-002,5.572015E-002,5.572015E-002,5.572015E-002,5.572015E-002,5.572015E-002,5.572015E-002,5.572015E-002,5.572015E-002,5.572015E-002,
   **   ~~~   ** Air System Named = CENTRAL SYSTEM did not converge for energy
   **   ~~~   ** Check values should be zero. Most Recent values listed first.
   **   ~~~   ** Demand-to-Supply interface energy check value iteration history trace: 1095.146019,1095.146018,1095.146018,1095.146018,1095.146018,1095.146018,1095.146018,1095.146018,1095.146018,1095.146018,
   **   ~~~   ** Supply-to-demand interface deck 1 energy check value iteration history trace: 1887.794541,1887.794541,1887.794541,1887.794541,1887.794541,1887.794541,1887.794541,1887.794540,1887.794540,1887.794540,
   ** Warning ** SimHVAC: Maximum iterations (20) exceeded for all HVAC loops, at ANNUAL, 03/05 12:00 - 12:15
   **   ~~~   ** The solution for one or more of the Air Loop HVAC systems did not appear to converge
   **   ~~~   ** Air System Named = CENTRAL SYSTEM did not converge for mass flow rate
   **   ~~~   ** Check values should be zero. Most Recent values listed first.
   **   ~~~   ** Demand-to-Supply interface mass flow rate check value iteration history trace: 4.982457E-002,4.982457E-002,4.982457E-002,4.982457E-002,4.982457E-002,4.982457E-002,4.982457E-002,4.982457E-002,4.982457E-002,4.982457E-002,
   **   ~~~   ** Supply-to-demand interface deck 1 mass flow rate check value iteration history trace: 4.982457E-002,4.982457E-002,4.982457E-002,4.982457E-002,4.982457E-002,4.982457E-002,4.982457E-002,4.982457E-002,4.982457E-002,4.982457E-002,
   **   ~~~   ** Air System Named = CENTRAL SYSTEM did not converge for energy
   **   ~~~   ** Check values should be zero. Most Recent values listed first.
   **   ~~~   ** Demand-to-Supply interface energy check value iteration history trace: 986.442544,986.442544,986.442544,986.442544,986.442544,986.442544,986.442544,986.442544,986.442544,986.442544,
   **   ~~~   ** Supply-to-demand interface deck 1 energy check value iteration history trace: 1781.111382,1781.111382,1781.111382,1781.111382,1781.111382,1781.111382,1781.111382,1781.111382,1781.111382,1781.111381,
   ** Warning ** SimHVAC: Maximum iterations (20) exceeded for all HVAC loops, at ANNUAL, 03/07 13:50 - 13:52
   **   ~~~   ** The solution for one or more of the Air Loop HVAC systems did not appear to converge
   **   ~~~   ** Air System Named = CENTRAL SYSTEM did not converge for mass flow rate
   **   ~~~   ** Check values should be zero. Most Recent values listed first.
   **   ~~~   ** Demand-to-Supply interface mass flow rate check value iteration history trace: 5.869106E-002,5.869106E-002,5.869106E-002,5.869106E-002,5.869106E-002,5.869106E-002,5.869106E-002,5.869106E-002,5.869106E-002,5.869106E-002,
   **   ~~~   ** Supply-to-demand interface deck 1 mass flow rate check value iteration history trace: 5.869106E-002,5.869106E-002,5.869106E-002,5.869106E-002,5.869106E-002,5.869106E-002,5.869106E-002,5.869106E-002,5.869106E-002,5.869106E-002,
   **   ~~~   ** Air System Named = CENTRAL SYSTEM did not converge for energy
   **   ~~~   ** Check values should be zero. Most Recent values listed first.
   **   ~~~   ** Demand-to-Supply interface energy check value iteration history trace: 1158.629698,1158.629698,1158.629698,1158.629698,1158.629698,1158.629698,1158.629698,1158.629698,1158.629698,1158.629698,
   **   ~~~   ** Supply-to-demand interface deck 1 energy check value iteration history trace: 1974.680052,1974.680052,1974.680051,1974.680051,1974.680051,1974.680051,1974.680051,1974.680051,1974.680051,1974.680051,
   ** Warning ** SimHVAC: Maximum iterations (20) exceeded for all HVAC loops, at ANNUAL, 03/09 12:45 - 13:00
   **   ~~~   ** The solution for one or more of the Air Loop HVAC systems did not appear to converge
   **   ~~~   ** Air System Named = CENTRAL SYSTEM did not converge for mass flow rate
   **   ~~~   ** Check values should be zero. Most Recent values listed first.
   **   ~~~   ** Demand-to-Supply interface mass flow rate check value iteration history trace: 2.350549E-002,2.350549E-002,2.350549E-002,2.350549E-002,2.350549E-002,2.350549E-002,2.350549E-002,2.350549E-002,2.350549E-002,2.350549E-002,
   **   ~~~   ** Supply-to-demand interface deck 1 mass flow rate check value iteration history trace: 2.350549E-002,2.350549E-002,2.350549E-002,2.350549E-002,2.350549E-002,2.350549E-002,2.350549E-002,2.350549E-002,2.350549E-002,2.350549E-002,
   **   ~~~   ** Air System Named = CENTRAL SYSTEM did not converge for energy
   **   ~~~   ** Check values should be zero. Most Recent values listed first.
   **   ~~~   ** Demand-to-Supply interface energy check value iteration history trace: 465.876697,465.876697,465.876697,465.876697,465.876697,465.876697,465.876697,465.876697,465.876697,465.876697,
   **   ~~~   ** Supply-to-demand interface deck 1 energy check value iteration history trace: 838.410791,838.410791,838.410791,838.410791,838.410791,838.410791,838.410791,838.410791,838.410791,838.410791,
   ** Warning ** SimHVAC: Maximum iterations (20) exceeded for all HVAC loops, at ANNUAL, 03/20 08:05 - 08:10
   **   ~~~   ** The solution for one or more of the Air Loop HVAC systems did not appear to converge
   **   ~~~   ** Air System Named = CENTRAL SYSTEM did not converge for mass flow rate
   **   ~~~   ** Check values should be zero. Most Recent values listed first.
   **   ~~~   ** Demand-to-Supply interface mass flow rate check value iteration history trace: 6.320379E-002,6.320379E-002,6.320379E-002,6.320379E-002,6.320379E-002,6.320379E-002,6.320379E-002,6.320379E-002,6.320379E-002,6.320379E-002,
   **   ~~~   ** Supply-to-demand interface deck 1 mass flow rate check value iteration history trace: 6.320379E-002,6.320379E-002,6.320379E-002,6.320379E-002,6.320379E-002,6.320379E-002,6.320379E-002,6.320379E-002,6.320379E-002,6.320379E-002,
   **   ~~~   ** Air System Named = CENTRAL SYSTEM did not converge for energy
   **   ~~~   ** Check values should be zero. Most Recent values listed first.
   **   ~~~   ** Demand-to-Supply interface energy check value iteration history trace: 1252.463848,1252.463848,1252.463848,1252.463848,1252.463847,1252.463847,1252.463847,1252.463847,1252.463847,1252.463847,
   **   ~~~   ** Supply-to-demand interface deck 1 energy check value iteration history trace: 2203.175520,2203.175520,2203.175520,2203.175520,2203.175519,2203.175519,2203.175519,2203.175519,2203.175519,2203.175519,
   ** Warning ** Temperature out of range [-100. to 200.] (PsyPsatFnTemp)
   **   ~~~   **  Routine=PsyTwbFnTdbWPb, Environment=ANNUAL, at Simulation time=03/28 20:15 - 20:19
   **   ~~~   **  Input Temperature=-320.55
   ** Warning ** SimHVAC: Maximum iterations (20) exceeded for all HVAC loops, at ANNUAL, 04/02 07:45 - 08:00
   **   ~~~   ** The solution for one or more of the Air Loop HVAC systems did not appear to converge
   **   ~~~   ** Air System Named = CENTRAL SYSTEM did not converge for mass flow rate
   **   ~~~   ** Check values should be zero. Most Recent values listed first.
   **   ~~~   ** Demand-to-Supply interface mass flow rate check value iteration history trace: 4.910209E-002,4.910209E-002,4.910209E-002,4.910209E-002,4.910209E-002,4.910209E-002,4.910209E-002,4.910209E-002,4.910209E-002,4.910209E-002,
   **   ~~~   ** Supply-to-demand interface deck 1 mass flow rate check value iteration history trace: 4.910209E-002,4.910209E-002,4.910209E-002,4.910209E-002,4.910209E-002,4.910209E-002,4.910209E-002,4.910209E-002,4.910209E-002,4.910209E-002,
   **   ~~~   ** Air System Named = CENTRAL SYSTEM did not converge for energy
   **   ~~~   ** Check values should be zero. Most Recent values listed first.
   **   ~~~   ** Demand-to-Supply interface energy check value iteration history trace: 975.574443,975.574443,975.574443,975.574443,975.574442,975.574442,975.574442,975.574442,975.574442,975.574442,
   **   ~~~   ** Supply-to-demand interface deck 1 energy check value iteration history trace: 1717.920715,1717.920715,1717.920715,1717.920715,1717.920715,1717.920715,1717.920715,1717.920715,1717.920715,1717.920714,
   ** Warning ** SimHVAC: Maximum iterations (20) exceeded for all HVAC loops, at ANNUAL, 04/23 08:18 - 08:21
   **   ~~~   ** The solution for one or more of the Air Loop HVAC systems did not appear to converge
   **   ~~~   ** Air System Named = CENTRAL SYSTEM did not converge for mass flow rate
   **   ~~~   ** Check values should be zero. Most Recent values listed first.
   **   ~~~   ** Demand-to-Supply interface mass flow rate check value iteration history trace: 5.482665E-002,5.482665E-002,5.482665E-002,5.482665E-002,5.482665E-002,5.482665E-002,5.482665E-002,5.482665E-002,5.482665E-002,5.482665E-002,
   **   ~~~   ** Supply-to-demand interface deck 1 mass flow rate check value iteration history trace: 5.482665E-002,5.482665E-002,5.482665E-002,5.482665E-002,5.482665E-002,5.482665E-002,5.482665E-002,5.482665E-002,5.482665E-002,5.482665E-002,
   **   ~~~   ** Air System Named = CENTRAL SYSTEM did not converge for energy
   **   ~~~   ** Check values should be zero. Most Recent values listed first.
   **   ~~~   ** Demand-to-Supply interface energy check value iteration history trace: 1081.926856,1081.926856,1081.926856,1081.926856,1081.926856,1081.926856,1081.926856,1081.926856,1081.926856,1081.926856,
   **   ~~~   ** Supply-to-demand interface deck 1 energy check value iteration history trace: 1900.329648,1900.329648,1900.329648,1900.329648,1900.329648,1900.329648,1900.329648,1900.329648,1900.329648,1900.329648,
   ** Warning ** SimHVAC: Maximum iterations (20) exceeded for all HVAC loops, at ANNUAL, 04/25 07:53 - 07:56
   **   ~~~   ** The solution for one or more of the Air Loop HVAC systems did not appear to converge
   **   ~~~   ** Air System Named = CENTRAL SYSTEM did not converge for mass flow rate
   **   ~~~   ** Check values should be zero. Most Recent values listed first.
   **   ~~~   ** Demand-to-Supply interface mass flow rate check value iteration history trace: 6.349435E-002,6.349435E-002,6.349435E-002,6.349435E-002,6.349435E-002,6.349435E-002,6.349435E-002,6.349435E-002,6.349435E-002,6.349435E-002,
   **   ~~~   ** Supply-to-demand interface deck 1 mass flow rate check value iteration history trace: 6.349435E-002,6.349435E-002,6.349435E-002,6.349435E-002,6.349435E-002,6.349435E-002,6.349435E-002,6.349435E-002,6.349435E-002,6.349435E-002,
   **   ~~~   ** Air System Named = CENTRAL SYSTEM did not converge for energy
   **   ~~~   ** Check values should be zero. Most Recent values listed first.
   **   ~~~   ** Demand-to-Supply interface energy check value iteration history trace: 1251.225119,1251.225119,1251.225119,1251.225119,1251.225119,1251.225118,1251.225118,1251.225118,1251.225118,1251.225118,
   **   ~~~   ** Supply-to-demand interface deck 1 energy check value iteration history trace: 2257.482162,2257.482162,2257.482162,2257.482162,2257.482162,2257.482161,2257.482161,2257.482161,2257.482161,2257.482161,
   ** Warning ** SimHVAC: Maximum iterations (20) exceeded for all HVAC loops, at ANNUAL, 05/03 06:15 - 06:30
   **   ~~~   ** The solution for one or more of the Air Loop HVAC systems did not appear to converge
   **   ~~~   ** Air System Named = CENTRAL SYSTEM did not converge for mass flow rate
   **   ~~~   ** Check values should be zero. Most Recent values listed first.
   **   ~~~   ** Demand-to-Supply interface mass flow rate check value iteration history trace: 0.107199,0.107199,0.107199,0.107199,0.107199,0.107199,0.107199,0.107199,0.107199,0.107199,
   **   ~~~   ** Supply-to-demand interface deck 1 mass flow rate check value iteration history trace: 0.107199,0.107199,0.107199,0.107199,0.107199,0.107199,0.107199,0.107199,0.107199,0.107199,
   **   ~~~   ** Air System Named = CENTRAL SYSTEM did not converge for energy
   **   ~~~   ** Check values should be zero. Most Recent values listed first.
   **   ~~~   ** Demand-to-Supply interface energy check value iteration history trace: 2571.922876,2571.922877,2571.922877,2571.922878,2571.922878,2571.922879,2571.922880,2571.922880,2571.922881,2571.922881,
   **   ~~~   ** Supply-to-demand interface deck 1 energy check value iteration history trace: 1358.310639,1358.310639,1358.310640,1358.310640,1358.310640,1358.310641,1358.310641,1358.310641,1358.310642,1358.310642,
   ************* Simulation Error Summary *************
   ** Warning ** The following Report Variables were requested but not generated -- check.rdd file
   **   ~~~   ** Either the IDF did not contain these elements, the variable name is misspelled,
   **   ~~~   ** or the requested variable is an advanced output which requires Output : Diagnostics, DisplayAdvancedReportVariables;
   ************* Key=*, VarName=BASEBOARD TOTAL HEATING ENERGY, Frequency=
   ************* Key=*, VarName=WATER HEATER NATURALGAS ENERGY, Frequency=
   ************* Key=*, VarName=COOLING COIL TOTAL HEATING ENERGY, Frequency=
   ************* There are 34 unused schedules in input.
   ************* There are 388 unused week schedules in input.
   ************* There are 396 unused day schedules in input.
   ************* Use Output:Diagnostics,DisplayUnusedSchedules; to see them.
   *************
   ************* ===== Recurring Error Summary =====
   ************* The following recurring error messages occurred.
   *************
   *************  ** Warning ** "TOTAL HOT WATER LOAD" - Target water temperature should be less than or equal to the hot water temperature error continues...
   *************  **   ~~~   **   This error occurred 133969 total times;
   *************  **   ~~~   **   during Warmup 0 times;
   *************  **   ~~~   **   during Sizing 0 times.
   *************  **   ~~~   **   Max=9.788234  Min=3.154691E-004
   *************
   *************  ** Warning ** Temperature out of range [-100. to 200.] (PsyPsatFnTemp)
   *************  **   ~~~   **   This error occurred 1 total times;
   *************  **   ~~~   **   during Warmup 0 times;
   *************  **   ~~~   **   during Sizing 0 times.
   *************  **   ~~~   **   Max=-320.55658 C  Min=-320.55658 C
   *************
   *************  ** Warning ** SimHVAC: Exceeding Maximum iterations for all HVAC loops, during ANNUAL continues
   *************  **   ~~~   **   This error occurred 15 total times;
   *************  **   ~~~   **   during Warmup 0 times;
   *************  **   ~~~   **   during Sizing 0 times.
   *************
   *************
   ************* ===== Final Error Summary =====
   ************* The following error categories occurred.  Consider correcting or noting.
   ************* Loads Initialization did not Converge
   ************* ..1) very high thermal mass such as very thick concrete (solution: increase max number of warmup
   ************* ..   days in the BUILDING object);
   ************* ..2) moderate mass and inadequate space conditioning such that the building keeps getting warmer
   ************* ..   and warmer on successive days (solution: add HVAC, check building thermal properties,
   ************* ..   check if infiltration is included, make sure HVAC properly controlled);
   ************* ..3) a soil layer modeled below the concrete slab - (solution remove this layer and read about
   ************* ..   ground temperatures in the Auxiliary Programs document).
   ************* ..4) unreasonable (too small) limits in the BUILDING object for temperature (.4 default) or
   ************* ..   loads tolerances (.04 default)
   ************* Nominally Unused Constructions
   ************* ..The nominally unused constructions warning is provided to alert you to potential conditions that can cause
   ************* ..extra time during simulation. Each construction is calculated by the algorithm indicated in the HeatBalanceAlgorithm
   ************* ..object. You may remove the constructions indicated (when you use the DisplayExtraWarnings option).
   *************
   ************* EnergyPlus Warmup Error Summary. During Warmup: 1 Warning; 1 Severe Errors.
   ************* EnergyPlus Sizing Error Summary. During Sizing: 4 Warning; 0 Severe Errors.
   ************* EnergyPlus Completed Successfully-- 134017 Warning; 1 Severe Errors; Elapsed Time=00hr 06min  7.45sec
