Program Version,EnergyPlus, Version 22.2.0-c249759bad, YMD=2023.09.01 20:10,
   ************* Beginning Zone Sizing Calculations
   ** Warning ** ProcessScheduleInput: Schedule:Constant="ALWAYS ON DISCRETE", Schedule Type Limits Name="ONOFF" not found -- will not be validated
   ** Warning ** Foundation:Kiva="KIVA FOUNDATION", no Interior Horizontal Insulation Material Name defined
   **   ~~~   ** Interior Horizontal Insulation Depth will not be used.
   ** Warning ** CheckUsedConstructions: There are 15 nominally unused constructions in input.
   **   ~~~   ** Each Unused construction is shown.
   ************* Construction=INTERIOR FLOOR
   ************* Construction=INTERIOR WINDOW
   ************* Construction=EXTERIOR DOOR
   ************* Construction=INTERIOR DOOR
   ************* Construction=GABLE CONSTRUCTION
   ************* Construction=CRAWL_FLOOR
   ************* Construction=INSULATED PIPE
   ************* Construction=PLAIN PIPE
   ************* Construction=TDD PIPE
   ************* Construction=TDD DOME
   ************* Construction=TDD DIFFUSER
   ************* Construction=CRAWL WALL
   ************* Construction=CEILING-FLOOR-LAYER
   ************* Construction=SLAB CONSTRUCTION W FULL R10 INSULATION
   ************* Construction=SLAB CONSTRUCTION W FULL R5 INSULATION
   ** Warning ** GetDXCoils: Coil:Heating:DX:SingleSpeed="DX_HEATING_COIL" curve values
   **   ~~~   ** ... Defrost Energy Input Ratio Function of Temperature Curve Name = DEFROSTEIR output is not equal to 1.0 (+ or - 10%) at rated conditions.
   **   ~~~   ** ... Curve output at rated conditions = 0.152
   ************* Beginning System Sizing Calculations
   ************* Beginning Plant Sizing Calculations
   ** Warning ** Coil:WaterHeating:AirToWaterHeatPump:Wrapped "HEAT PUMP WATER HEATER EVAPORATOR": Rated air volume flow rate per watt of rated total water heating capacity is out of range
   **   ~~~   ** Min Rated Vol Flow Per Watt=[4.027E-005], Rated Vol Flow Per Watt=[1.510E-004], Max Rated Vol Flow Per Watt=[8.056E-005]. See Input-Output Reference Manual for valid range.
   ************* SizeFan: : Potential issue with equipment sizing for Fan:OnOff HEAT PUMP WATER HEATER FAN
   **   ~~~   ** User-Specified Maximum Flow Rate [m3/s] = 0.22653
   **   ~~~   ** differs from Design Size Maximum Flow Rate [m3/s] = 7.55250E-002
   **   ~~~   ** This may, or may not, indicate mismatched component sizes.
   **   ~~~   ** Verify that the value entered is intended and is consistent with other components.
   ** Warning ** Water heater = WATER HEATER TANK:  Recovery Efficiency and Energy Factor could not be calculated during the test for standard ratings
   **   ~~~   ** Setpoint was never recovered and/or heater never turned on
   ** Warning ** Check input. Pump nominal power or motor efficiency is set to 0, for pump=MAINS PRESSURE
   ** Warning ** Output:Meter: invalid Key Name="ELECTRIC_RANGE:INTERIOREQUIPMENT:ELECTRICITY" - not found.
   ** Warning ** Output:Meter: invalid Key Name="ELECTRIC_DRYER:INTERIOREQUIPMENT:ELECTRICITY" - not found.
   ** Warning ** Output:Meter: invalid Key Name="HEATRECOVERY:ELECTRICITY" - not found.
   ** Warning ** Output:Meter: invalid Key Name="HEATING:NATURALGAS" - not found.
   ** Warning ** Output:Meter: invalid Key Name="WATERSYSTEMS:NATURALGAS" - not found.
   ** Warning ** Output:Meter: invalid Key Name="PROPANE:FACILITY" - not found.
   ** Warning ** Output:Meter: invalid Key Name="HEATING:PROPANE" - not found.
   ************* Testing Individual Branch Integrity
   ************* All Branches passed integrity testing
   ************* Testing Individual Supply Air Path Integrity
   ************* All Supply Air Paths passed integrity testing
   ************* Testing Individual Return Air Path Integrity
   ************* All Return Air Paths passed integrity testing
   ************* No node connection errors were found.
   ************* Beginning Simulation
   ** Warning ** AirflowNetwork::Solver::validate_distribution: Heat pump water heater is simulated along with an AirflowNetwork but is not included in the AirflowNetwork.
   ** Warning ** CalcEquipmentFlowRates: "TOTAL HOT WATER LOAD" - Target water temperature is greater than the hot water temperature by (4.03 C)
   **   ~~~   **  Environment=EXTREME_WINTER, at Simulation time=01/06 07:00 - 07:15
   **   ~~~   ** ...target water temperature     = 53.33 C
   **   ~~~   ** ...hot water temperature        = 49.31 C
   **   ~~~   ** ...Target water temperature should be less than or equal to the hot water temperature. Verify temperature setpoints and schedules.
   ** Warning ** SimHVAC: Maximum iterations (20) exceeded for all HVAC loops, at ANNUAL, 01/07 08:30 - 08:45
   **   ~~~   ** The solution for one or more of the Air Loop HVAC systems did not appear to converge
   **   ~~~   ** Air System Named = CENTRAL SYSTEM did not converge for mass flow rate
   **   ~~~   ** Check values should be zero. Most Recent values listed first.
   **   ~~~   ** Demand-to-Supply interface mass flow rate check value iteration history trace: 7.076850E-002,7.076850E-002,7.076850E-002,7.076850E-002,7.076850E-002,7.076850E-002,7.076850E-002,7.076850E-002,7.076850E-002,7.076850E-002,
   **   ~~~   ** Supply-to-demand interface deck 1 mass flow rate check value iteration history trace: 7.076850E-002,7.076850E-002,7.076850E-002,7.076850E-002,7.076850E-002,7.076850E-002,7.076850E-002,7.076850E-002,7.076850E-002,7.076850E-002,
   **   ~~~   ** Air System Named = CENTRAL SYSTEM did not converge for energy
   **   ~~~   ** Check values should be zero. Most Recent values listed first.
   **   ~~~   ** Demand-to-Supply interface energy check value iteration history trace: 1402.364993,1402.364993,1402.364993,1402.364993,1402.364993,1402.364993,1402.364993,1402.364992,1402.364992,1402.364992,
   **   ~~~   ** Supply-to-demand interface deck 1 energy check value iteration history trace: 2434.689742,2434.689742,2434.689742,2434.689742,2434.689742,2434.689741,2434.689741,2434.689741,2434.689741,2434.689741,
   ** Warning ** SimHVAC: Maximum iterations (20) exceeded for all HVAC loops, at ANNUAL, 01/08 22:08 - 22:11
   **   ~~~   ** The solution for one or more of the Air Loop HVAC systems did not appear to converge
   **   ~~~   ** Air System Named = CENTRAL SYSTEM did not converge for mass flow rate
   **   ~~~   ** Check values should be zero. Most Recent values listed first.
   **   ~~~   ** Demand-to-Supply interface mass flow rate check value iteration history trace: 8.188676E-002,8.188676E-002,8.188676E-002,8.188676E-002,8.188676E-002,8.188676E-002,8.188676E-002,8.188676E-002,8.188676E-002,8.188676E-002,
   **   ~~~   ** Supply-to-demand interface deck 1 mass flow rate check value iteration history trace: 8.188676E-002,8.188676E-002,8.188676E-002,8.188676E-002,8.188676E-002,8.188676E-002,8.188676E-002,8.188676E-002,8.188676E-002,8.188676E-002,
   **   ~~~   ** Air System Named = CENTRAL SYSTEM did not converge for energy
   **   ~~~   ** Check values should be zero. Most Recent values listed first.
   **   ~~~   ** Demand-to-Supply interface energy check value iteration history trace: 1556.857508,1556.857508,1556.857507,1556.857507,1556.857507,1556.857507,1556.857507,1556.857507,1556.857507,1556.857507,
   **   ~~~   ** Supply-to-demand interface deck 1 energy check value iteration history trace: 2420.108257,2420.108257,2420.108257,2420.108257,2420.108256,2420.108256,2420.108256,2420.108256,2420.108256,2420.108256,
   ** Warning ** SimHVAC: Maximum iterations (20) exceeded for all HVAC loops, at ANNUAL, 01/22 08:34 - 08:38
   **   ~~~   ** The solution for one or more of the Air Loop HVAC systems did not appear to converge
   **   ~~~   ** Air System Named = CENTRAL SYSTEM did not converge for mass flow rate
   **   ~~~   ** Check values should be zero. Most Recent values listed first.
   **   ~~~   ** Demand-to-Supply interface mass flow rate check value iteration history trace: 5.787264E-002,5.787264E-002,5.787264E-002,5.787264E-002,5.787264E-002,5.787264E-002,5.787264E-002,5.787264E-002,5.787264E-002,5.787264E-002,
   **   ~~~   ** Supply-to-demand interface deck 1 mass flow rate check value iteration history trace: 5.787264E-002,5.787264E-002,5.787264E-002,5.787264E-002,5.787264E-002,5.787264E-002,5.787264E-002,5.787264E-002,5.787264E-002,5.787264E-002,
   **   ~~~   ** Air System Named = CENTRAL SYSTEM did not converge for energy
   **   ~~~   ** Check values should be zero. Most Recent values listed first.
   **   ~~~   ** Demand-to-Supply interface energy check value iteration history trace: 1146.896499,1146.896499,1146.896499,1146.896499,1146.896499,1146.896499,1146.896498,1146.896498,1146.896498,1146.896498,
   **   ~~~   ** Supply-to-demand interface deck 1 energy check value iteration history trace: 2060.814340,2060.814340,2060.814340,2060.814340,2060.814340,2060.814340,2060.814340,2060.814340,2060.814339,2060.814339,
   ** Warning ** SimHVAC: Maximum iterations (20) exceeded for all HVAC loops, at ANNUAL, 01/23 09:15 - 09:30
   **   ~~~   ** The solution for one or more of the Air Loop HVAC systems did not appear to converge
   **   ~~~   ** Air System Named = CENTRAL SYSTEM did not converge for mass flow rate
   **   ~~~   ** Check values should be zero. Most Recent values listed first.
   **   ~~~   ** Demand-to-Supply interface mass flow rate check value iteration history trace: 5.602555E-002,5.602555E-002,5.602555E-002,5.602555E-002,5.602555E-002,5.602555E-002,5.602555E-002,5.602555E-002,5.602555E-002,5.602555E-002,
   **   ~~~   ** Supply-to-demand interface deck 1 mass flow rate check value iteration history trace: 5.602555E-002,5.602555E-002,5.602555E-002,5.602555E-002,5.602555E-002,5.602555E-002,5.602555E-002,5.602555E-002,5.602555E-002,5.602555E-002,
   **   ~~~   ** Air System Named = CENTRAL SYSTEM did not converge for energy
   **   ~~~   ** Check values should be zero. Most Recent values listed first.
   **   ~~~   ** Demand-to-Supply interface energy check value iteration history trace: 1108.929765,1108.929765,1108.929765,1108.929765,1108.929765,1108.929765,1108.929765,1108.929765,1108.929765,1108.929765,
   **   ~~~   ** Supply-to-demand interface deck 1 energy check value iteration history trace: 2094.372428,2094.372428,2094.372428,2094.372428,2094.372428,2094.372427,2094.372427,2094.372427,2094.372427,2094.372427,
   ** Warning ** SimHVAC: Maximum iterations (20) exceeded for all HVAC loops, at ANNUAL, 02/06 08:00 - 08:15
   **   ~~~   ** The solution for one or more of the Air Loop HVAC systems did not appear to converge
   **   ~~~   ** Air System Named = CENTRAL SYSTEM did not converge for mass flow rate
   **   ~~~   ** Check values should be zero. Most Recent values listed first.
   **   ~~~   ** Demand-to-Supply interface mass flow rate check value iteration history trace: 6.612293E-002,6.612293E-002,6.612293E-002,6.612293E-002,6.612293E-002,6.612293E-002,6.612293E-002,6.612293E-002,6.612293E-002,6.612293E-002,
   **   ~~~   ** Supply-to-demand interface deck 1 mass flow rate check value iteration history trace: 6.612293E-002,6.612293E-002,6.612293E-002,6.612293E-002,6.612293E-002,6.612293E-002,6.612293E-002,6.612293E-002,6.612293E-002,6.612293E-002,
   **   ~~~   ** Air System Named = CENTRAL SYSTEM did not converge for energy
   **   ~~~   ** Check values should be zero. Most Recent values listed first.
   **   ~~~   ** Demand-to-Supply interface energy check value iteration history trace: 1310.640943,1310.640943,1310.640943,1310.640943,1310.640943,1310.640942,1310.640942,1310.640942,1310.640942,1310.640942,
   **   ~~~   ** Supply-to-demand interface deck 1 energy check value iteration history trace: 2280.833305,2280.833305,2280.833305,2280.833305,2280.833305,2280.833304,2280.833304,2280.833304,2280.833304,2280.833304,
   ** Warning ** SimHVAC: Maximum iterations (20) exceeded for all HVAC loops, at ANNUAL, 02/06 09:11 - 09:15
   **   ~~~   ** The solution for one or more of the Air Loop HVAC systems did not appear to converge
   **   ~~~   ** Air System Named = CENTRAL SYSTEM did not converge for mass flow rate
   **   ~~~   ** Check values should be zero. Most Recent values listed first.
   **   ~~~   ** Demand-to-Supply interface mass flow rate check value iteration history trace: 6.892145E-002,6.892145E-002,6.892145E-002,6.892145E-002,6.892145E-002,6.892145E-002,6.892145E-002,6.892145E-002,6.892145E-002,6.892145E-002,
   **   ~~~   ** Supply-to-demand interface deck 1 mass flow rate check value iteration history trace: 6.892145E-002,6.892145E-002,6.892145E-002,6.892145E-002,6.892145E-002,6.892145E-002,6.892145E-002,6.892145E-002,6.892145E-002,6.892145E-002,
   **   ~~~   ** Air System Named = CENTRAL SYSTEM did not converge for energy
   **   ~~~   ** Check values should be zero. Most Recent values listed first.
   **   ~~~   ** Demand-to-Supply interface energy check value iteration history trace: 1363.740650,1363.740650,1363.740650,1363.740650,1363.740650,1363.740649,1363.740649,1363.740649,1363.740649,1363.740649,
   **   ~~~   ** Supply-to-demand interface deck 1 energy check value iteration history trace: 2451.880266,2451.880266,2451.880266,2451.880266,2451.880266,2451.880265,2451.880265,2451.880265,2451.880265,2451.880265,
   ** Warning ** SimHVAC: Maximum iterations (20) exceeded for all HVAC loops, at ANNUAL, 02/10 10:15 - 10:17
   **   ~~~   ** The solution for one or more of the Air Loop HVAC systems did not appear to converge
   **   ~~~   ** Air System Named = CENTRAL SYSTEM did not converge for mass flow rate
   **   ~~~   ** Check values should be zero. Most Recent values listed first.
   **   ~~~   ** Demand-to-Supply interface mass flow rate check value iteration history trace: 5.805536E-002,5.805536E-002,5.805536E-002,5.805536E-002,5.805536E-002,5.805536E-002,5.805536E-002,5.805536E-002,5.805536E-002,5.805536E-002,
   **   ~~~   ** Supply-to-demand interface deck 1 mass flow rate check value iteration history trace: 5.805536E-002,5.805536E-002,5.805536E-002,5.805536E-002,5.805536E-002,5.805536E-002,5.805536E-002,5.805536E-002,5.805536E-002,5.805536E-002,
   **   ~~~   ** Air System Named = CENTRAL SYSTEM did not converge for energy
   **   ~~~   ** Check values should be zero. Most Recent values listed first.
   **   ~~~   ** Demand-to-Supply interface energy check value iteration history trace: 1148.574535,1148.574535,1148.574535,1148.574535,1148.574535,1148.574535,1148.574535,1148.574535,1148.574535,1148.574535,
   **   ~~~   ** Supply-to-demand interface deck 1 energy check value iteration history trace: 2128.159080,2128.159080,2128.159080,2128.159080,2128.159080,2128.159080,2128.159079,2128.159079,2128.159079,2128.159079,
   ** Warning ** SimHVAC: Maximum iterations (20) exceeded for all HVAC loops, at ANNUAL, 02/16 03:45 - 04:00
   **   ~~~   ** The solution for one or more of the Air Loop HVAC systems did not appear to converge
   **   ~~~   ** Air System Named = CENTRAL SYSTEM did not converge for mass flow rate
   **   ~~~   ** Check values should be zero. Most Recent values listed first.
   **   ~~~   ** Demand-to-Supply interface mass flow rate check value iteration history trace: 7.459947E-002,7.459947E-002,7.459947E-002,7.459947E-002,7.459947E-002,7.459947E-002,7.459947E-002,7.459947E-002,7.459947E-002,7.459947E-002,
   **   ~~~   ** Supply-to-demand interface deck 1 mass flow rate check value iteration history trace: 7.459947E-002,7.459947E-002,7.459947E-002,7.459947E-002,7.459947E-002,7.459947E-002,7.459947E-002,7.459947E-002,7.459947E-002,7.459947E-002,
   **   ~~~   ** Air System Named = CENTRAL SYSTEM did not converge for energy
   **   ~~~   ** Check values should be zero. Most Recent values listed first.
   **   ~~~   ** Demand-to-Supply interface energy check value iteration history trace: 1408.516829,1408.516829,1408.516829,1408.516829,1408.516829,1408.516829,1408.516829,1408.516829,1408.516829,1408.516828,
   **   ~~~   ** Supply-to-demand interface deck 1 energy check value iteration history trace: 2291.933997,2291.933997,2291.933997,2291.933996,2291.933996,2291.933996,2291.933996,2291.933996,2291.933996,2291.933996,
   ** Warning ** SimHVAC: Maximum iterations (20) exceeded for all HVAC loops, at ANNUAL, 03/03 12:15 - 12:22
   **   ~~~   ** The solution for one or more of the Air Loop HVAC systems did not appear to converge
   **   ~~~   ** Air System Named = CENTRAL SYSTEM did not converge for mass flow rate
   **   ~~~   ** Check values should be zero. Most Recent values listed first.
   **   ~~~   ** Demand-to-Supply interface mass flow rate check value iteration history trace: 6.525289E-002,6.525289E-002,6.525289E-002,6.525289E-002,6.525289E-002,6.525289E-002,6.525289E-002,6.525289E-002,6.525289E-002,6.525289E-002,
   **   ~~~   ** Supply-to-demand interface deck 1 mass flow rate check value iteration history trace: 6.525289E-002,6.525289E-002,6.525289E-002,6.525289E-002,6.525289E-002,6.525289E-002,6.525289E-002,6.525289E-002,6.525289E-002,6.525289E-002,
   **   ~~~   ** Air System Named = CENTRAL SYSTEM did not converge for energy
   **   ~~~   ** Check values should be zero. Most Recent values listed first.
   **   ~~~   ** Demand-to-Supply interface energy check value iteration history trace: 1293.080657,1293.080656,1293.080656,1293.080656,1293.080656,1293.080655,1293.080655,1293.080655,1293.080654,1293.080654,
   **   ~~~   ** Supply-to-demand interface deck 1 energy check value iteration history trace: 2099.149936,2099.149936,2099.149935,2099.149935,2099.149934,2099.149934,2099.149933,2099.149933,2099.149933,2099.149932,
   **   ~~~   ** Node named ZONE INLET NODE shows oscillating temperatures across iterations with a repeated value of 32.014383
   **   ~~~   ** Node named ZONE INLET NODE temperature [C] iteration history trace (most recent first): 32.014383,32.014383,32.014383,32.014382,32.014382,32.014382,32.014382,32.014382,32.014381,32.014381,
   ** Warning ** SimHVAC: Maximum iterations (20) exceeded for all HVAC loops, at ANNUAL, 04/03 22:23 - 22:30
   **   ~~~   ** The solution for one or more of the Air Loop HVAC systems did not appear to converge
   **   ~~~   ** Air System Named = CENTRAL SYSTEM did not converge for mass flow rate
   **   ~~~   ** Check values should be zero. Most Recent values listed first.
   **   ~~~   ** Demand-to-Supply interface mass flow rate check value iteration history trace: 2.476743E-002,2.476743E-002,2.476743E-002,2.476743E-002,2.476743E-002,2.476743E-002,2.476743E-002,2.476743E-002,2.476743E-002,2.476743E-002,
   **   ~~~   ** Supply-to-demand interface deck 1 mass flow rate check value iteration history trace: 2.476743E-002,2.476743E-002,2.476743E-002,2.476743E-002,2.476743E-002,2.476743E-002,2.476743E-002,2.476743E-002,2.476743E-002,2.476743E-002,
   **   ~~~   ** Air System Named = CENTRAL SYSTEM did not converge for energy
   **   ~~~   ** Check values should be zero. Most Recent values listed first.
   **   ~~~   ** Demand-to-Supply interface energy check value iteration history trace: 607.319074,607.319075,607.319075,607.319075,607.319075,607.319075,607.319075,607.319075,607.319075,607.319076,
   **   ~~~   ** Supply-to-demand interface deck 1 energy check value iteration history trace: 284.178440,284.178440,284.178440,284.178440,284.178440,284.178440,284.178440,284.178440,284.178440,284.178440,
   ** Warning ** SimHVAC: Maximum iterations (20) exceeded for all HVAC loops, at ANNUAL, 04/05 06:00 - 06:08
   **   ~~~   ** The solution for one or more of the Air Loop HVAC systems did not appear to converge
   **   ~~~   ** Air System Named = CENTRAL SYSTEM did not converge for mass flow rate
   **   ~~~   ** Check values should be zero. Most Recent values listed first.
   **   ~~~   ** Demand-to-Supply interface mass flow rate check value iteration history trace: 4.335693E-002,4.335693E-002,4.335693E-002,4.335693E-002,4.335693E-002,4.335693E-002,4.335693E-002,4.335693E-002,4.335693E-002,4.335693E-002,
   **   ~~~   ** Supply-to-demand interface deck 1 mass flow rate check value iteration history trace: 4.335693E-002,4.335693E-002,4.335693E-002,4.335693E-002,4.335693E-002,4.335693E-002,4.335693E-002,4.335693E-002,4.335693E-002,4.335693E-002,
   **   ~~~   ** Air System Named = CENTRAL SYSTEM did not converge for energy
   **   ~~~   ** Check values should be zero. Most Recent values listed first.
   **   ~~~   ** Demand-to-Supply interface energy check value iteration history trace: 1014.754092,1014.754093,1014.754093,1014.754093,1014.754093,1014.754093,1014.754093,1014.754093,1014.754093,1014.754093,
   **   ~~~   ** Supply-to-demand interface deck 1 energy check value iteration history trace: 555.459274,555.459274,555.459274,555.459274,555.459274,555.459274,555.459274,555.459274,555.459274,555.459274,
   ** Warning ** SimHVAC: Maximum iterations (20) exceeded for all HVAC loops, at ANNUAL, 04/06 01:00 - 01:15
   **   ~~~   ** The solution for one or more of the Air Loop HVAC systems did not appear to converge
   **   ~~~   ** Air System Named = CENTRAL SYSTEM did not converge for mass flow rate
   **   ~~~   ** Check values should be zero. Most Recent values listed first.
   **   ~~~   ** Demand-to-Supply interface mass flow rate check value iteration history trace: 8.059417E-002,8.059417E-002,8.059417E-002,8.059417E-002,8.059417E-002,8.059417E-002,8.059417E-002,8.059417E-002,8.059417E-002,8.059417E-002,
   **   ~~~   ** Supply-to-demand interface deck 1 mass flow rate check value iteration history trace: 8.059417E-002,8.059417E-002,8.059417E-002,8.059417E-002,8.059417E-002,8.059417E-002,8.059417E-002,8.059417E-002,8.059417E-002,8.059417E-002,
   **   ~~~   ** Air System Named = CENTRAL SYSTEM did not converge for energy
   **   ~~~   ** Check values should be zero. Most Recent values listed first.
   **   ~~~   ** Demand-to-Supply interface energy check value iteration history trace: 2011.137103,2011.137104,2011.137104,2011.137104,2011.137105,2011.137105,2011.137106,2011.137106,2011.137107,2011.137107,
   **   ~~~   ** Supply-to-demand interface deck 1 energy check value iteration history trace: 981.387356,981.387356,981.387357,981.387357,981.387357,981.387357,981.387357,981.387358,981.387358,981.387358,
   ** Warning ** SimHVAC: Maximum iterations (20) exceeded for all HVAC loops, at ANNUAL, 04/14 10:47 - 10:50
   **   ~~~   ** The solution for one or more of the Air Loop HVAC systems did not appear to converge
   **   ~~~   ** Air System Named = CENTRAL SYSTEM did not converge for mass flow rate
   **   ~~~   ** Check values should be zero. Most Recent values listed first.
   **   ~~~   ** Demand-to-Supply interface mass flow rate check value iteration history trace: 0.299902,0.299902,0.299902,0.299902,0.299902,0.299902,0.299902,0.299902,0.299902,0.299902,
   **   ~~~   ** Supply-to-demand interface deck 1 mass flow rate check value iteration history trace: 0.299902,0.299902,0.299902,0.299902,0.299902,0.299902,0.299902,0.299902,0.299902,0.299902,
   **   ~~~   ** Air System Named = CENTRAL SYSTEM did not converge for energy
   **   ~~~   ** Check values should be zero. Most Recent values listed first.
   **   ~~~   ** Demand-to-Supply interface energy check value iteration history trace: 7184.624046,7184.624048,7184.624049,7184.624050,7184.624051,7184.624052,7184.624053,7184.624054,7184.624055,7184.624057,
   **   ~~~   ** Supply-to-demand interface deck 1 energy check value iteration history trace: 3002.008717,3002.008718,3002.008718,3002.008719,3002.008719,3002.008720,3002.008720,3002.008721,3002.008721,3002.008721,
   ** Warning ** SimHVAC: Maximum iterations (20) exceeded for all HVAC loops, at ANNUAL, 12/01 07:00 - 07:15
   **   ~~~   ** The solution for one or more of the Air Loop HVAC systems did not appear to converge
   **   ~~~   ** Air System Named = CENTRAL SYSTEM did not converge for mass flow rate
   **   ~~~   ** Check values should be zero. Most Recent values listed first.
   **   ~~~   ** Demand-to-Supply interface mass flow rate check value iteration history trace: 4.565499E-002,4.565499E-002,4.565499E-002,4.565499E-002,4.565499E-002,4.565499E-002,4.565499E-002,4.565499E-002,4.565499E-002,4.565499E-002,
   **   ~~~   ** Supply-to-demand interface deck 1 mass flow rate check value iteration history trace: 4.565499E-002,4.565499E-002,4.565499E-002,4.565499E-002,4.565499E-002,4.565499E-002,4.565499E-002,4.565499E-002,4.565499E-002,4.565499E-002,
   **   ~~~   ** Air System Named = CENTRAL SYSTEM did not converge for energy
   **   ~~~   ** Check values should be zero. Most Recent values listed first.
   **   ~~~   ** Demand-to-Supply interface energy check value iteration history trace: 897.349607,897.349607,897.349607,897.349607,897.349607,897.349607,897.349607,897.349607,897.349607,897.349607,
   **   ~~~   ** Supply-to-demand interface deck 1 energy check value iteration history trace: 1607.944296,1607.944296,1607.944296,1607.944296,1607.944296,1607.944296,1607.944296,1607.944296,1607.944296,1607.944296,
   ************* Simulation Error Summary *************
   ** Warning ** The following Report Variables were requested but not generated -- check.rdd file
   **   ~~~   ** Either the IDF did not contain these elements, the variable name is misspelled,
   **   ~~~   ** or the requested variable is an advanced output which requires Output : Diagnostics, DisplayAdvancedReportVariables;
   ************* Key=*, VarName=BASEBOARD TOTAL HEATING ENERGY, Frequency=
   ************* Key=*, VarName=WATER HEATER NATURALGAS ENERGY, Frequency=
   ************* Key=*, VarName=COOLING COIL TOTAL HEATING ENERGY, Frequency=
   ************* There are 34 unused schedules in input.
   ************* There are 388 unused week schedules in input.
   ************* There are 396 unused day schedules in input.
   ************* Use Output:Diagnostics,DisplayUnusedSchedules; to see them.
   *************
   ************* ===== Recurring Error Summary =====
   ************* The following recurring error messages occurred.
   *************
   *************  ** Warning ** "TOTAL HOT WATER LOAD" - Target water temperature should be less than or equal to the hot water temperature error continues...
   *************  **   ~~~   **   This error occurred 180677 total times;
   *************  **   ~~~   **   during Warmup 0 times;
   *************  **   ~~~   **   during Sizing 0 times.
   *************  **   ~~~   **   Max=11.710035  Min=5.799545E-004
   *************
   *************  ** Warning ** SimHVAC: Exceeding Maximum iterations for all HVAC loops, during ANNUAL continues
   *************  **   ~~~   **   This error occurred 7 total times;
   *************  **   ~~~   **   during Warmup 0 times;
   *************  **   ~~~   **   during Sizing 0 times.
   *************
   *************
   ************* ===== Final Error Summary =====
   ************* The following error categories occurred.  Consider correcting or noting.
   ************* Nominally Unused Constructions
   ************* ..The nominally unused constructions warning is provided to alert you to potential conditions that can cause
   ************* ..extra time during simulation. Each construction is calculated by the algorithm indicated in the HeatBalanceAlgorithm
   ************* ..object. You may remove the constructions indicated (when you use the DisplayExtraWarnings option).
   *************
   ************* EnergyPlus Warmup Error Summary. During Warmup: 1 Warning; 0 Severe Errors.
   ************* EnergyPlus Sizing Error Summary. During Sizing: 4 Warning; 0 Severe Errors.
   ************* EnergyPlus Completed Successfully-- 180715 Warning; 0 Severe Errors; Elapsed Time=00hr 01min 42.17sec
