Program Version,EnergyPlus, Version 22.2.0-c249759bad, YMD=2023.09.01 19:12,
   ************* Beginning Zone Sizing Calculations
   ** Warning ** ProcessScheduleInput: Schedule:Constant="ALWAYS ON DISCRETE", Schedule Type Limits Name="ONOFF" not found -- will not be validated
   ** Warning ** Foundation:Kiva="KIVA FOUNDATION", no Interior Horizontal Insulation Material Name defined
   **   ~~~   ** Interior Horizontal Insulation Depth will not be used.
   ** Warning ** CheckUsedConstructions: There are 15 nominally unused constructions in input.
   **   ~~~   ** Each Unused construction is shown.
   ************* Construction=INTERIOR FLOOR
   ************* Construction=INTERIOR WINDOW
   ************* Construction=EXTERIOR DOOR
   ************* Construction=INTERIOR DOOR
   ************* Construction=GABLE CONSTRUCTION
   ************* Construction=CRAWL_FLOOR
   ************* Construction=INSULATED PIPE
   ************* Construction=PLAIN PIPE
   ************* Construction=TDD PIPE
   ************* Construction=TDD DOME
   ************* Construction=TDD DIFFUSER
   ************* Construction=CRAWL WALL
   ************* Construction=CEILING-FLOOR-LAYER
   ************* Construction=SLAB CONSTRUCTION W FULL R10 INSULATION
   ************* Construction=SLAB CONSTRUCTION W FULL R5 INSULATION
   ** Warning ** GetDXCoils: Coil:Heating:DX:SingleSpeed="DX_HEATING_COIL" curve values
   **   ~~~   ** ... Defrost Energy Input Ratio Function of Temperature Curve Name = DEFROSTEIR output is not equal to 1.0 (+ or - 10%) at rated conditions.
   **   ~~~   ** ... Curve output at rated conditions = 0.152
   ************* Beginning System Sizing Calculations
   ************* Beginning Plant Sizing Calculations
   ** Warning ** Coil:WaterHeating:AirToWaterHeatPump:Wrapped "HEAT PUMP WATER HEATER EVAPORATOR": Rated air volume flow rate per watt of rated total water heating capacity is out of range
   **   ~~~   ** Min Rated Vol Flow Per Watt=[4.027E-005], Rated Vol Flow Per Watt=[1.510E-004], Max Rated Vol Flow Per Watt=[8.056E-005]. See Input-Output Reference Manual for valid range.
   ************* SizeFan: : Potential issue with equipment sizing for Fan:OnOff HEAT PUMP WATER HEATER FAN
   **   ~~~   ** User-Specified Maximum Flow Rate [m3/s] = 0.22653
   **   ~~~   ** differs from Design Size Maximum Flow Rate [m3/s] = 7.55250E-002
   **   ~~~   ** This may, or may not, indicate mismatched component sizes.
   **   ~~~   ** Verify that the value entered is intended and is consistent with other components.
   ** Warning ** Water heater = WATER HEATER TANK:  Recovery Efficiency and Energy Factor could not be calculated during the test for standard ratings
   **   ~~~   ** Setpoint was never recovered and/or heater never turned on
   ** Warning ** Check input. Pump nominal power or motor efficiency is set to 0, for pump=MAINS PRESSURE
   ** Warning ** Output:Meter: invalid Key Name="ELECTRIC_RANGE:INTERIOREQUIPMENT:ELECTRICITY" - not found.
   ** Warning ** Output:Meter: invalid Key Name="ELECTRIC_DRYER:INTERIOREQUIPMENT:ELECTRICITY" - not found.
   ** Warning ** Output:Meter: invalid Key Name="HEATRECOVERY:ELECTRICITY" - not found.
   ** Warning ** Output:Meter: invalid Key Name="HEATING:NATURALGAS" - not found.
   ** Warning ** Output:Meter: invalid Key Name="WATERSYSTEMS:NATURALGAS" - not found.
   ** Warning ** Output:Meter: invalid Key Name="PROPANE:FACILITY" - not found.
   ** Warning ** Output:Meter: invalid Key Name="HEATING:PROPANE" - not found.
   ************* Testing Individual Branch Integrity
   ************* All Branches passed integrity testing
   ************* Testing Individual Supply Air Path Integrity
   ************* All Supply Air Paths passed integrity testing
   ************* Testing Individual Return Air Path Integrity
   ************* All Return Air Paths passed integrity testing
   ************* No node connection errors were found.
   ************* Beginning Simulation
   ** Warning ** AirflowNetwork::Solver::validate_distribution: Heat pump water heater is simulated along with an AirflowNetwork but is not included in the AirflowNetwork.
   ** Warning ** CalcEquipmentFlowRates: "TOTAL HOT WATER LOAD" - Target water temperature is greater than the hot water temperature by (1.04 C)
   **   ~~~   **  Environment=EXTREME_WINTER, at Simulation time=02/17 06:45 - 07:00
   **   ~~~   ** ...target water temperature     = 53.33 C
   **   ~~~   ** ...hot water temperature        = 52.29 C
   **   ~~~   ** ...Target water temperature should be less than or equal to the hot water temperature. Verify temperature setpoints and schedules.
   ** Warning ** SimHVAC: Maximum iterations (20) exceeded for all HVAC loops, at ANNUAL, 01/02 14:30 - 14:34
   **   ~~~   ** The solution for one or more of the Air Loop HVAC systems did not appear to converge
   **   ~~~   ** Air System Named = CENTRAL SYSTEM did not converge for mass flow rate
   **   ~~~   ** Check values should be zero. Most Recent values listed first.
   **   ~~~   ** Demand-to-Supply interface mass flow rate check value iteration history trace: 6.381063E-002,6.381063E-002,6.381063E-002,6.381063E-002,6.381063E-002,6.381063E-002,6.381063E-002,6.381063E-002,6.381063E-002,6.381063E-002,
   **   ~~~   ** Supply-to-demand interface deck 1 mass flow rate check value iteration history trace: 6.381063E-002,6.381063E-002,6.381063E-002,6.381063E-002,6.381063E-002,6.381063E-002,6.381063E-002,6.381063E-002,6.381063E-002,6.381063E-002,
   **   ~~~   ** Air System Named = CENTRAL SYSTEM did not converge for energy
   **   ~~~   ** Check values should be zero. Most Recent values listed first.
   **   ~~~   ** Demand-to-Supply interface energy check value iteration history trace: 1260.480390,1260.480390,1260.480390,1260.480390,1260.480390,1260.480390,1260.480390,1260.480390,1260.480389,1260.480389,
   **   ~~~   ** Supply-to-demand interface deck 1 energy check value iteration history trace: 1978.308724,1978.308724,1978.308724,1978.308723,1978.308723,1978.308723,1978.308723,1978.308723,1978.308723,1978.308723,
   ** Warning ** SimHVAC: Maximum iterations (20) exceeded for all HVAC loops, at ANNUAL, 01/17 10:15 - 10:30
   **   ~~~   ** The solution for one or more of the Air Loop HVAC systems did not appear to converge
   **   ~~~   ** Air System Named = CENTRAL SYSTEM did not converge for mass flow rate
   **   ~~~   ** Check values should be zero. Most Recent values listed first.
   **   ~~~   ** Demand-to-Supply interface mass flow rate check value iteration history trace: 6.651935E-002,6.651935E-002,6.651935E-002,6.651935E-002,6.651935E-002,6.651935E-002,6.651935E-002,6.651935E-002,6.651935E-002,6.651935E-002,
   **   ~~~   ** Supply-to-demand interface deck 1 mass flow rate check value iteration history trace: 6.651935E-002,6.651935E-002,6.651935E-002,6.651935E-002,6.651935E-002,6.651935E-002,6.651935E-002,6.651935E-002,6.651935E-002,6.651935E-002,
   **   ~~~   ** Air System Named = CENTRAL SYSTEM did not converge for energy
   **   ~~~   ** Check values should be zero. Most Recent values listed first.
   **   ~~~   ** Demand-to-Supply interface energy check value iteration history trace: 1318.270250,1318.270250,1318.270250,1318.270250,1318.270250,1318.270250,1318.270250,1318.270249,1318.270249,1318.270249,
   **   ~~~   ** Supply-to-demand interface deck 1 energy check value iteration history trace: 2303.559794,2303.559794,2303.559794,2303.559794,2303.559794,2303.559794,2303.559794,2303.559793,2303.559793,2303.559793,
   ** Warning ** SimHVAC: Maximum iterations (20) exceeded for all HVAC loops, at ANNUAL, 02/04 09:45 - 09:49
   **   ~~~   ** The solution for one or more of the Air Loop HVAC systems did not appear to converge
   **   ~~~   ** Air System Named = CENTRAL SYSTEM did not converge for mass flow rate
   **   ~~~   ** Check values should be zero. Most Recent values listed first.
   **   ~~~   ** Demand-to-Supply interface mass flow rate check value iteration history trace: 7.302131E-002,7.302131E-002,7.302131E-002,7.302131E-002,7.302131E-002,7.302131E-002,7.302131E-002,7.302131E-002,7.302131E-002,7.302131E-002,
   **   ~~~   ** Supply-to-demand interface deck 1 mass flow rate check value iteration history trace: 7.302131E-002,7.302131E-002,7.302131E-002,7.302131E-002,7.302131E-002,7.302131E-002,7.302131E-002,7.302131E-002,7.302131E-002,7.302131E-002,
   **   ~~~   ** Air System Named = CENTRAL SYSTEM did not converge for energy
   **   ~~~   ** Check values should be zero. Most Recent values listed first.
   **   ~~~   ** Demand-to-Supply interface energy check value iteration history trace: 1447.012688,1447.012688,1447.012688,1447.012688,1447.012688,1447.012688,1447.012688,1447.012688,1447.012688,1447.012688,
   **   ~~~   ** Supply-to-demand interface deck 1 energy check value iteration history trace: 2589.499303,2589.499303,2589.499303,2589.499303,2589.499303,2589.499303,2589.499303,2589.499302,2589.499302,2589.499302,
   ** Warning ** SimHVAC: Maximum iterations (20) exceeded for all HVAC loops, at ANNUAL, 02/05 09:32 - 09:34
   **   ~~~   ** The solution for one or more of the Air Loop HVAC systems did not appear to converge
   **   ~~~   ** Air System Named = CENTRAL SYSTEM did not converge for mass flow rate
   **   ~~~   ** Check values should be zero. Most Recent values listed first.
   **   ~~~   ** Demand-to-Supply interface mass flow rate check value iteration history trace: 6.057479E-002,6.057479E-002,6.057479E-002,6.057479E-002,6.057479E-002,6.057479E-002,6.057479E-002,6.057479E-002,6.057479E-002,6.057479E-002,
   **   ~~~   ** Supply-to-demand interface deck 1 mass flow rate check value iteration history trace: 6.057479E-002,6.057479E-002,6.057479E-002,6.057479E-002,6.057479E-002,6.057479E-002,6.057479E-002,6.057479E-002,6.057479E-002,6.057479E-002,
   **   ~~~   ** Air System Named = CENTRAL SYSTEM did not converge for energy
   **   ~~~   ** Check values should be zero. Most Recent values listed first.
   **   ~~~   ** Demand-to-Supply interface energy check value iteration history trace: 1200.448767,1200.448767,1200.448767,1200.448767,1200.448767,1200.448767,1200.448767,1200.448767,1200.448766,1200.448766,
   **   ~~~   ** Supply-to-demand interface deck 1 energy check value iteration history trace: 2141.789946,2141.789945,2141.789945,2141.789945,2141.789945,2141.789945,2141.789945,2141.789945,2141.789945,2141.789945,
   ** Warning ** SimHVAC: Maximum iterations (20) exceeded for all HVAC loops, at ANNUAL, 02/13 10:00 - 10:02
   **   ~~~   ** The solution for one or more of the Air Loop HVAC systems did not appear to converge
   **   ~~~   ** Air System Named = CENTRAL SYSTEM did not converge for mass flow rate
   **   ~~~   ** Check values should be zero. Most Recent values listed first.
   **   ~~~   ** Demand-to-Supply interface mass flow rate check value iteration history trace: 6.598127E-002,6.598127E-002,6.598127E-002,6.598127E-002,6.598127E-002,6.598127E-002,6.598127E-002,6.598127E-002,6.598127E-002,6.598127E-002,
   **   ~~~   ** Supply-to-demand interface deck 1 mass flow rate check value iteration history trace: 6.598127E-002,6.598127E-002,6.598127E-002,6.598127E-002,6.598127E-002,6.598127E-002,6.598127E-002,6.598127E-002,6.598127E-002,6.598127E-002,
   **   ~~~   ** Air System Named = CENTRAL SYSTEM did not converge for energy
   **   ~~~   ** Check values should be zero. Most Recent values listed first.
   **   ~~~   ** Demand-to-Supply interface energy check value iteration history trace: 1307.547079,1307.547079,1307.547079,1307.547079,1307.547079,1307.547079,1307.547079,1307.547079,1307.547079,1307.547079,
   **   ~~~   ** Supply-to-demand interface deck 1 energy check value iteration history trace: 2121.184649,2121.184649,2121.184649,2121.184649,2121.184649,2121.184649,2121.184648,2121.184648,2121.184648,2121.184648,
   ** Warning ** SimHVAC: Maximum iterations (20) exceeded for all HVAC loops, at ANNUAL, 02/14 11:53 - 11:56
   **   ~~~   ** The solution for one or more of the Air Loop HVAC systems did not appear to converge
   **   ~~~   ** Air System Named = CENTRAL SYSTEM did not converge for mass flow rate
   **   ~~~   ** Check values should be zero. Most Recent values listed first.
   **   ~~~   ** Demand-to-Supply interface mass flow rate check value iteration history trace: 5.763571E-002,5.763571E-002,5.763571E-002,5.763571E-002,5.763571E-002,5.763571E-002,5.763571E-002,5.763571E-002,5.763571E-002,5.763571E-002,
   **   ~~~   ** Supply-to-demand interface deck 1 mass flow rate check value iteration history trace: 5.763571E-002,5.763571E-002,5.763571E-002,5.763571E-002,5.763571E-002,5.763571E-002,5.763571E-002,5.763571E-002,5.763571E-002,5.763571E-002,
   **   ~~~   ** Air System Named = CENTRAL SYSTEM did not converge for energy
   **   ~~~   ** Check values should be zero. Most Recent values listed first.
   **   ~~~   ** Demand-to-Supply interface energy check value iteration history trace: 1142.194886,1142.194886,1142.194886,1142.194886,1142.194886,1142.194886,1142.194886,1142.194886,1142.194886,1142.194886,
   **   ~~~   ** Supply-to-demand interface deck 1 energy check value iteration history trace: 2068.043497,2068.043497,2068.043497,2068.043496,2068.043496,2068.043496,2068.043496,2068.043496,2068.043496,2068.043496,
   ** Warning ** SimHVAC: Maximum iterations (20) exceeded for all HVAC loops, at ANNUAL, 02/16 20:30 - 20:45
   **   ~~~   ** The solution for one or more of the Air Loop HVAC systems did not appear to converge
   **   ~~~   ** Air System Named = CENTRAL SYSTEM did not converge for mass flow rate
   **   ~~~   ** Check values should be zero. Most Recent values listed first.
   **   ~~~   ** Demand-to-Supply interface mass flow rate check value iteration history trace: 2.181204E-002,2.181204E-002,2.181204E-002,2.181204E-002,2.181204E-002,2.181204E-002,2.181204E-002,2.181204E-002,2.181204E-002,2.181204E-002,
   **   ~~~   ** Supply-to-demand interface deck 1 mass flow rate check value iteration history trace: 2.181204E-002,2.181204E-002,2.181204E-002,2.181204E-002,2.181204E-002,2.181204E-002,2.181204E-002,2.181204E-002,2.181204E-002,2.181204E-002,
   **   ~~~   ** Air System Named = CENTRAL SYSTEM did not converge for energy
   **   ~~~   ** Check values should be zero. Most Recent values listed first.
   **   ~~~   ** Demand-to-Supply interface energy check value iteration history trace: 431.509520,431.509520,431.509520,431.509520,431.509520,431.509520,431.509520,431.509520,431.509520,431.509520,
   **   ~~~   ** Supply-to-demand interface deck 1 energy check value iteration history trace: 689.020910,689.020910,689.020910,689.020910,689.020910,689.020910,689.020910,689.020910,689.020909,689.020909,
   ** Warning ** SimHVAC: Maximum iterations (20) exceeded for all HVAC loops, at ANNUAL, 03/26 09:00 - 09:15
   **   ~~~   ** The solution for one or more of the Air Loop HVAC systems did not appear to converge
   **   ~~~   ** Air System Named = CENTRAL SYSTEM did not converge for mass flow rate
   **   ~~~   ** Check values should be zero. Most Recent values listed first.
   **   ~~~   ** Demand-to-Supply interface mass flow rate check value iteration history trace: 4.266696E-002,4.266696E-002,4.266696E-002,4.266696E-002,4.266696E-002,4.266696E-002,4.266696E-002,4.266696E-002,4.266696E-002,4.266696E-002,
   **   ~~~   ** Supply-to-demand interface deck 1 mass flow rate check value iteration history trace: 4.266696E-002,4.266696E-002,4.266696E-002,4.266696E-002,4.266696E-002,4.266696E-002,4.266696E-002,4.266696E-002,4.266696E-002,4.266696E-002,
   **   ~~~   ** Air System Named = CENTRAL SYSTEM did not converge for energy
   **   ~~~   ** Check values should be zero. Most Recent values listed first.
   **   ~~~   ** Demand-to-Supply interface energy check value iteration history trace: 845.524603,845.524603,845.524603,845.524603,845.524603,845.524603,845.524603,845.524603,845.524603,845.524603,
   **   ~~~   ** Supply-to-demand interface deck 1 energy check value iteration history trace: 1630.683483,1630.683483,1630.683483,1630.683483,1630.683483,1630.683482,1630.683482,1630.683482,1630.683482,1630.683482,
   ** Warning ** SimHVAC: Maximum iterations (20) exceeded for all HVAC loops, at ANNUAL, 04/07 03:45 - 04:00
   **   ~~~   ** The solution for one or more of the Air Loop HVAC systems did not appear to converge
   **   ~~~   ** Air System Named = CENTRAL SYSTEM did not converge for mass flow rate
   **   ~~~   ** Check values should be zero. Most Recent values listed first.
   **   ~~~   ** Demand-to-Supply interface mass flow rate check value iteration history trace: 5.197267E-002,5.197267E-002,5.197267E-002,5.197267E-002,5.197267E-002,5.197267E-002,5.197267E-002,5.197267E-002,5.197267E-002,5.197267E-002,
   **   ~~~   ** Supply-to-demand interface deck 1 mass flow rate check value iteration history trace: 5.197267E-002,5.197267E-002,5.197267E-002,5.197267E-002,5.197267E-002,5.197267E-002,5.197267E-002,5.197267E-002,5.197267E-002,5.197267E-002,
   **   ~~~   ** Air System Named = CENTRAL SYSTEM did not converge for energy
   **   ~~~   ** Check values should be zero. Most Recent values listed first.
   **   ~~~   ** Demand-to-Supply interface energy check value iteration history trace: 965.804717,965.804717,965.804717,965.804717,965.804717,965.804717,965.804717,965.804717,965.804717,965.804717,
   **   ~~~   ** Supply-to-demand interface deck 1 energy check value iteration history trace: 1737.652943,1737.652943,1737.652943,1737.652943,1737.652943,1737.652943,1737.652942,1737.652942,1737.652942,1737.652942,
   ** Warning ** SimHVAC: Maximum iterations (20) exceeded for all HVAC loops, at ANNUAL, 04/15 09:28 - 09:30
   **   ~~~   ** The solution for one or more of the Air Loop HVAC systems did not appear to converge
   **   ~~~   ** Air System Named = CENTRAL SYSTEM did not converge for mass flow rate
   **   ~~~   ** Check values should be zero. Most Recent values listed first.
   **   ~~~   ** Demand-to-Supply interface mass flow rate check value iteration history trace: 7.146150E-002,7.146150E-002,7.146150E-002,7.146150E-002,7.146150E-002,7.146150E-002,7.146150E-002,7.146150E-002,7.146150E-002,7.146150E-002,
   **   ~~~   ** Supply-to-demand interface deck 1 mass flow rate check value iteration history trace: 7.146150E-002,7.146150E-002,7.146150E-002,7.146150E-002,7.146150E-002,7.146150E-002,7.146150E-002,7.146150E-002,7.146150E-002,7.146150E-002,
   **   ~~~   ** Air System Named = CENTRAL SYSTEM did not converge for energy
   **   ~~~   ** Check values should be zero. Most Recent values listed first.
   **   ~~~   ** Demand-to-Supply interface energy check value iteration history trace: 1415.339195,1415.339195,1415.339195,1415.339195,1415.339195,1415.339195,1415.339195,1415.339194,1415.339194,1415.339194,
   **   ~~~   ** Supply-to-demand interface deck 1 energy check value iteration history trace: 2535.412400,2535.412400,2535.412400,2535.412400,2535.412400,2535.412400,2535.412400,2535.412400,2535.412400,2535.412399,
   ** Warning ** SimHVAC: Maximum iterations (20) exceeded for all HVAC loops, at ANNUAL, 04/25 06:30 - 06:45
   **   ~~~   ** The solution for one or more of the Air Loop HVAC systems did not appear to converge
   **   ~~~   ** Air System Named = CENTRAL SYSTEM did not converge for mass flow rate
   **   ~~~   ** Check values should be zero. Most Recent values listed first.
   **   ~~~   ** Demand-to-Supply interface mass flow rate check value iteration history trace: 6.086778E-002,6.086778E-002,6.086778E-002,6.086778E-002,6.086778E-002,6.086778E-002,6.086778E-002,6.086778E-002,6.086778E-002,6.086778E-002,
   **   ~~~   ** Supply-to-demand interface deck 1 mass flow rate check value iteration history trace: 6.086778E-002,6.086778E-002,6.086778E-002,6.086778E-002,6.086778E-002,6.086778E-002,6.086778E-002,6.086778E-002,6.086778E-002,6.086778E-002,
   **   ~~~   ** Air System Named = CENTRAL SYSTEM did not converge for energy
   **   ~~~   ** Check values should be zero. Most Recent values listed first.
   **   ~~~   ** Demand-to-Supply interface energy check value iteration history trace: 1199.733562,1199.733562,1199.733562,1199.733562,1199.733562,1199.733562,1199.733562,1199.733562,1199.733562,1199.733562,
   **   ~~~   ** Supply-to-demand interface deck 1 energy check value iteration history trace: 2142.648085,2142.648085,2142.648084,2142.648084,2142.648084,2142.648084,2142.648084,2142.648084,2142.648084,2142.648084,
   ** Warning ** SimHVAC: Maximum iterations (20) exceeded for all HVAC loops, at ANNUAL, 04/30 09:00 - 09:15
   **   ~~~   ** The solution for one or more of the Air Loop HVAC systems did not appear to converge
   **   ~~~   ** Air System Named = CENTRAL SYSTEM did not converge for mass flow rate
   **   ~~~   ** Check values should be zero. Most Recent values listed first.
   **   ~~~   ** Demand-to-Supply interface mass flow rate check value iteration history trace: 6.004162E-002,6.004162E-002,6.004162E-002,6.004162E-002,6.004162E-002,6.004162E-002,6.004162E-002,6.004162E-002,6.004162E-002,6.004162E-002,
   **   ~~~   ** Supply-to-demand interface deck 1 mass flow rate check value iteration history trace: 6.004162E-002,6.004162E-002,6.004162E-002,6.004162E-002,6.004162E-002,6.004162E-002,6.004162E-002,6.004162E-002,6.004162E-002,6.004162E-002,
   **   ~~~   ** Air System Named = CENTRAL SYSTEM did not converge for energy
   **   ~~~   ** Check values should be zero. Most Recent values listed first.
   **   ~~~   ** Demand-to-Supply interface energy check value iteration history trace: 1183.797086,1183.797086,1183.797086,1183.797086,1183.797086,1183.797085,1183.797085,1183.797085,1183.797085,1183.797084,
   **   ~~~   ** Supply-to-demand interface deck 1 energy check value iteration history trace: 2183.291178,2183.291178,2183.291177,2183.291177,2183.291177,2183.291176,2183.291176,2183.291175,2183.291175,2183.291175,
   **   ~~~   ** Node named ZONE INLET NODE shows oscillating temperatures across iterations with a repeated value of 36.187677
   **   ~~~   ** Node named ZONE INLET NODE temperature [C] iteration history trace (most recent first): 36.187677,36.187677,36.187676,36.187676,36.187676,36.187676,36.187675,36.187675,36.187675,36.187674,
   ** Warning ** SimHVAC: Maximum iterations (20) exceeded for all HVAC loops, at ANNUAL, 05/11 10:25 - 10:30
   **   ~~~   ** The solution for one or more of the Air Loop HVAC systems did not appear to converge
   **   ~~~   ** Air System Named = CENTRAL SYSTEM did not converge for mass flow rate
   **   ~~~   ** Check values should be zero. Most Recent values listed first.
   **   ~~~   ** Demand-to-Supply interface mass flow rate check value iteration history trace: 1.124988E-002,1.124988E-002,1.124988E-002,1.124988E-002,1.124988E-002,1.124988E-002,1.124988E-002,1.124988E-002,1.124988E-002,1.124988E-002,
   **   ~~~   ** Supply-to-demand interface deck 1 mass flow rate check value iteration history trace: 1.124988E-002,1.124988E-002,1.124988E-002,1.124988E-002,1.124988E-002,1.124988E-002,1.124988E-002,1.124988E-002,1.124988E-002,1.124988E-002,
   **   ~~~   ** Air System Named = CENTRAL SYSTEM did not converge for energy
   **   ~~~   ** Check values should be zero. Most Recent values listed first.
   **   ~~~   ** Demand-to-Supply interface energy check value iteration history trace: 263.311162,263.311162,263.311162,263.311162,263.311162,263.311163,263.311163,263.311163,263.311163,263.311163,
   **   ~~~   ** Supply-to-demand interface deck 1 energy check value iteration history trace: 131.651229,131.651229,131.651229,131.651229,131.651229,131.651229,131.651229,131.651229,131.651229,131.651229,
   ** Warning ** SimHVAC: Maximum iterations (20) exceeded for all HVAC loops, at ANNUAL, 05/13 05:30 - 05:45
   **   ~~~   ** The solution for one or more of the Air Loop HVAC systems did not appear to converge
   **   ~~~   ** Air System Named = CENTRAL SYSTEM did not converge for mass flow rate
   **   ~~~   ** Check values should be zero. Most Recent values listed first.
   **   ~~~   ** Demand-to-Supply interface mass flow rate check value iteration history trace: 5.381331E-002,5.381331E-002,5.381331E-002,5.381331E-002,5.381331E-002,5.381331E-002,5.381331E-002,5.381331E-002,5.381331E-002,5.381331E-002,
   **   ~~~   ** Supply-to-demand interface deck 1 mass flow rate check value iteration history trace: 5.381331E-002,5.381331E-002,5.381331E-002,5.381331E-002,5.381331E-002,5.381331E-002,5.381331E-002,5.381331E-002,5.381331E-002,5.381331E-002,
   **   ~~~   ** Air System Named = CENTRAL SYSTEM did not converge for energy
   **   ~~~   ** Check values should be zero. Most Recent values listed first.
   **   ~~~   ** Demand-to-Supply interface energy check value iteration history trace: 1066.440698,1066.440698,1066.440698,1066.440698,1066.440698,1066.440698,1066.440698,1066.440698,1066.440698,1066.440698,
   **   ~~~   ** Supply-to-demand interface deck 1 energy check value iteration history trace: 1915.712901,1915.712901,1915.712901,1915.712901,1915.712901,1915.712901,1915.712901,1915.712900,1915.712900,1915.712900,
   ************* Simulation Error Summary *************
   ** Warning ** The following Report Variables were requested but not generated -- check.rdd file
   **   ~~~   ** Either the IDF did not contain these elements, the variable name is misspelled,
   **   ~~~   ** or the requested variable is an advanced output which requires Output : Diagnostics, DisplayAdvancedReportVariables;
   ************* Key=*, VarName=BASEBOARD TOTAL HEATING ENERGY, Frequency=
   ************* Key=*, VarName=WATER HEATER NATURALGAS ENERGY, Frequency=
   ************* Key=*, VarName=COOLING COIL TOTAL HEATING ENERGY, Frequency=
   ************* There are 34 unused schedules in input.
   ************* There are 388 unused week schedules in input.
   ************* There are 397 unused day schedules in input.
   ************* Use Output:Diagnostics,DisplayUnusedSchedules; to see them.
   *************
   ************* ===== Recurring Error Summary =====
   ************* The following recurring error messages occurred.
   *************
   *************  ** Warning ** "TOTAL HOT WATER LOAD" - Target water temperature should be less than or equal to the hot water temperature error continues...
   *************  **   ~~~   **   This error occurred 97139 total times;
   *************  **   ~~~   **   during Warmup 0 times;
   *************  **   ~~~   **   during Sizing 0 times.
   *************  **   ~~~   **   Max=9.642089  Min=4.848486E-003
   *************
   *************  ** Warning ** SimHVAC: Exceeding Maximum iterations for all HVAC loops, during ANNUAL continues
   *************  **   ~~~   **   This error occurred 13 total times;
   *************  **   ~~~   **   during Warmup 0 times;
   *************  **   ~~~   **   during Sizing 0 times.
   *************
   *************
   ************* ===== Final Error Summary =====
   ************* The following error categories occurred.  Consider correcting or noting.
   ************* Nominally Unused Constructions
   ************* ..The nominally unused constructions warning is provided to alert you to potential conditions that can cause
   ************* ..extra time during simulation. Each construction is calculated by the algorithm indicated in the HeatBalanceAlgorithm
   ************* ..object. You may remove the constructions indicated (when you use the DisplayExtraWarnings option).
   *************
   ************* EnergyPlus Warmup Error Summary. During Warmup: 1 Warning; 0 Severe Errors.
   ************* EnergyPlus Sizing Error Summary. During Sizing: 4 Warning; 0 Severe Errors.
   ************* EnergyPlus Completed Successfully-- 97183 Warning; 0 Severe Errors; Elapsed Time=00hr 01min 30.91sec
