Program Version,EnergyPlus, Version 22.2.0-c249759bad, YMD=2023.09.01 19:37,
   ************* Beginning Zone Sizing Calculations
   ** Warning ** ProcessScheduleInput: Schedule:Constant="ALWAYS ON DISCRETE", Schedule Type Limits Name="ONOFF" not found -- will not be validated
   ** Warning ** Foundation:Kiva="KIVA FOUNDATION", no Interior Horizontal Insulation Material Name defined
   **   ~~~   ** Interior Horizontal Insulation Depth will not be used.
   ** Warning ** CheckUsedConstructions: There are 15 nominally unused constructions in input.
   **   ~~~   ** Each Unused construction is shown.
   ************* Construction=INTERIOR FLOOR
   ************* Construction=INTERIOR WINDOW
   ************* Construction=EXTERIOR DOOR
   ************* Construction=INTERIOR DOOR
   ************* Construction=GABLE CONSTRUCTION
   ************* Construction=CRAWL_FLOOR
   ************* Construction=INSULATED PIPE
   ************* Construction=PLAIN PIPE
   ************* Construction=TDD PIPE
   ************* Construction=TDD DOME
   ************* Construction=TDD DIFFUSER
   ************* Construction=CRAWL WALL
   ************* Construction=CEILING-FLOOR-LAYER
   ************* Construction=SLAB CONSTRUCTION W FULL R10 INSULATION
   ************* Construction=SLAB CONSTRUCTION W FULL R5 INSULATION
   ** Warning ** GetDXCoils: Coil:Heating:DX:SingleSpeed="DX_HEATING_COIL" curve values
   **   ~~~   ** ... Defrost Energy Input Ratio Function of Temperature Curve Name = DEFROSTEIR output is not equal to 1.0 (+ or - 10%) at rated conditions.
   **   ~~~   ** ... Curve output at rated conditions = 0.152
   ************* Beginning System Sizing Calculations
   ************* Beginning Plant Sizing Calculations
   ** Warning ** SizeDXCoil Coil:Cooling:DX:SingleSpeed DX_COOLING_COIL
   **   ~~~   ** ...Gross Rated Total Cooling Capacity [W] will be limited by the maximum rated volume flow per rated total capacity ratio.
   **   ~~~   ** ...DX coil volume flow rate ( m3/s ) = 0.445112
   **   ~~~   ** ...Requested capacity ( W ) = 7071.662
   **   ~~~   ** ...Requested flow/capacity ratio ( m3/s/W ) = 6.294E-005
   **   ~~~   ** ...Maximum flow/capacity ratio ( m3/s/W ) = 6.041E-005
   **   ~~~   ** ...Adjusted capacity ( W ) = 7368.198
   ** Warning ** Coil:WaterHeating:AirToWaterHeatPump:Wrapped "HEAT PUMP WATER HEATER EVAPORATOR": Rated air volume flow rate per watt of rated total water heating capacity is out of range
   **   ~~~   ** Min Rated Vol Flow Per Watt=[4.027E-005], Rated Vol Flow Per Watt=[1.510E-004], Max Rated Vol Flow Per Watt=[8.056E-005]. See Input-Output Reference Manual for valid range.
   ************* SizeFan: : Potential issue with equipment sizing for Fan:OnOff HEAT PUMP WATER HEATER FAN
   **   ~~~   ** User-Specified Maximum Flow Rate [m3/s] = 0.22653
   **   ~~~   ** differs from Design Size Maximum Flow Rate [m3/s] = 7.55250E-002
   **   ~~~   ** This may, or may not, indicate mismatched component sizes.
   **   ~~~   ** Verify that the value entered is intended and is consistent with other components.
   ** Warning ** Water heater = WATER HEATER TANK:  Recovery Efficiency and Energy Factor could not be calculated during the test for standard ratings
   **   ~~~   ** Setpoint was never recovered and/or heater never turned on
   ** Warning ** Check input. Pump nominal power or motor efficiency is set to 0, for pump=MAINS PRESSURE
   ** Warning ** Output:Meter: invalid Key Name="ELECTRIC_RANGE:INTERIOREQUIPMENT:ELECTRICITY" - not found.
   ** Warning ** Output:Meter: invalid Key Name="ELECTRIC_DRYER:INTERIOREQUIPMENT:ELECTRICITY" - not found.
   ** Warning ** Output:Meter: invalid Key Name="HEATRECOVERY:ELECTRICITY" - not found.
   ** Warning ** Output:Meter: invalid Key Name="HEATING:NATURALGAS" - not found.
   ** Warning ** Output:Meter: invalid Key Name="WATERSYSTEMS:NATURALGAS" - not found.
   ** Warning ** Output:Meter: invalid Key Name="PROPANE:FACILITY" - not found.
   ** Warning ** Output:Meter: invalid Key Name="HEATING:PROPANE" - not found.
   ************* Testing Individual Branch Integrity
   ************* All Branches passed integrity testing
   ************* Testing Individual Supply Air Path Integrity
   ************* All Supply Air Paths passed integrity testing
   ************* Testing Individual Return Air Path Integrity
   ************* All Return Air Paths passed integrity testing
   ************* No node connection errors were found.
   ************* Beginning Simulation
   ** Warning ** AirflowNetwork::Solver::validate_distribution: Heat pump water heater is simulated along with an AirflowNetwork but is not included in the AirflowNetwork.
   ** Warning ** CalcEquipmentFlowRates: "TOTAL HOT WATER LOAD" - Target water temperature is greater than the hot water temperature by (0.72 C)
   **   ~~~   **  Environment=EXTREME_WINTER, at Simulation time=01/29 06:00 - 06:15
   **   ~~~   ** ...target water temperature     = 53.33 C
   **   ~~~   ** ...hot water temperature        = 52.62 C
   **   ~~~   ** ...Target water temperature should be less than or equal to the hot water temperature. Verify temperature setpoints and schedules.
   ** Severe  ** CheckWarmupConvergence: Loads Initialization, Zone="LIVING" did not converge after 25 warmup days.
   **   ~~~   ** See Warmup Convergence Information in .eio file for details.
   **   ~~~   ** ...Environment(SizingPeriod)="EXTREME_SUMMER"
   **   ~~~   ** ..Max Temp Comparison = 2.69E-004 vs Temperature Convergence Tolerance=5.00E-002 - Pass Convergence
   **   ~~~   ** ..Min Temp Comparison = 7.51E-004 vs Temperature Convergence Tolerance=5.00E-002 - Pass Convergence
   **   ~~~   ** ..Max Heat Load Comparison = 0.2866 vs Loads Convergence Tolerance=5.00E-002 - Fail Convergence
   **   ~~~   ** ..Max Cool Load Comparison = 2.9151E-003 vs Loads Convergence Tolerance=5.00E-002 - Pass Convergence
   ** Severe  ** CheckWarmupConvergence: Loads Initialization, Zone="ATTIC" did not converge after 25 warmup days.
   **   ~~~   ** ...Environment(SizingPeriod)="EXTREME_SUMMER"
   **   ~~~   ** ..Max Temp Comparison = 2.41E-003 vs Temperature Convergence Tolerance=5.00E-002 - Pass Convergence
   **   ~~~   ** ..Min Temp Comparison = 0.11 vs Temperature Convergence Tolerance=5.00E-002 - Fail Convergence
   **   ~~~   ** ..Max Heat Load Comparison = 0.0000 vs Loads Convergence Tolerance=5.00E-002 - Pass Convergence
   **   ~~~   ** ..Max Cool Load Comparison = 0.0000 vs Loads Convergence Tolerance=5.00E-002 - Pass Convergence
   ** Warning ** SimHVAC: Maximum iterations (20) exceeded for all HVAC loops, at ANNUAL, 01/01 03:15 - 03:30
   **   ~~~   ** The solution for one or more of the Air Loop HVAC systems did not appear to converge
   **   ~~~   ** Air System Named = CENTRAL SYSTEM did not converge for mass flow rate
   **   ~~~   ** Check values should be zero. Most Recent values listed first.
   **   ~~~   ** Demand-to-Supply interface mass flow rate check value iteration history trace: 5.077486E-002,5.077486E-002,5.077486E-002,5.077486E-002,5.077486E-002,5.077486E-002,5.077486E-002,5.077486E-002,5.077486E-002,5.077486E-002,
   **   ~~~   ** Supply-to-demand interface deck 1 mass flow rate check value iteration history trace: 5.077486E-002,5.077486E-002,5.077486E-002,5.077486E-002,5.077486E-002,5.077486E-002,5.077486E-002,5.077486E-002,5.077486E-002,5.077486E-002,
   **   ~~~   ** Air System Named = CENTRAL SYSTEM did not converge for energy
   **   ~~~   ** Check values should be zero. Most Recent values listed first.
   **   ~~~   ** Demand-to-Supply interface energy check value iteration history trace: 947.058454,947.058454,947.058454,947.058454,947.058454,947.058454,947.058454,947.058454,947.058454,947.058454,
   **   ~~~   ** Supply-to-demand interface deck 1 energy check value iteration history trace: 1725.967589,1725.967589,1725.967589,1725.967589,1725.967589,1725.967589,1725.967589,1725.967589,1725.967589,1725.967588,
   ** Warning ** SimHVAC: Maximum iterations (20) exceeded for all HVAC loops, at ANNUAL, 01/01 21:45 - 22:00
   **   ~~~   ** The solution for one or more of the Air Loop HVAC systems did not appear to converge
   **   ~~~   ** Air System Named = CENTRAL SYSTEM did not converge for mass flow rate
   **   ~~~   ** Check values should be zero. Most Recent values listed first.
   **   ~~~   ** Demand-to-Supply interface mass flow rate check value iteration history trace: 6.385397E-002,6.385397E-002,6.385397E-002,6.385397E-002,6.385397E-002,6.385397E-002,6.385397E-002,6.385397E-002,6.385397E-002,6.385397E-002,
   **   ~~~   ** Supply-to-demand interface deck 1 mass flow rate check value iteration history trace: 6.385397E-002,6.385397E-002,6.385397E-002,6.385397E-002,6.385397E-002,6.385397E-002,6.385397E-002,6.385397E-002,6.385397E-002,6.385397E-002,
   **   ~~~   ** Air System Named = CENTRAL SYSTEM did not converge for energy
   **   ~~~   ** Check values should be zero. Most Recent values listed first.
   **   ~~~   ** Demand-to-Supply interface energy check value iteration history trace: 1244.881185,1244.881185,1244.881185,1244.881185,1244.881185,1244.881185,1244.881185,1244.881185,1244.881185,1244.881185,
   **   ~~~   ** Supply-to-demand interface deck 1 energy check value iteration history trace: 2101.382212,2101.382212,2101.382212,2101.382212,2101.382212,2101.382211,2101.382211,2101.382211,2101.382211,2101.382211,
   ** Warning ** SimHVAC: Maximum iterations (20) exceeded for all HVAC loops, at ANNUAL, 01/04 19:35 - 19:40
   **   ~~~   ** The solution for one or more of the Air Loop HVAC systems did not appear to converge
   **   ~~~   ** Air System Named = CENTRAL SYSTEM did not converge for mass flow rate
   **   ~~~   ** Check values should be zero. Most Recent values listed first.
   **   ~~~   ** Demand-to-Supply interface mass flow rate check value iteration history trace: 9.542810E-002,9.542810E-002,9.542810E-002,9.542810E-002,9.542810E-002,9.542810E-002,9.542810E-002,9.542810E-002,9.542810E-002,9.542810E-002,
   **   ~~~   ** Supply-to-demand interface deck 1 mass flow rate check value iteration history trace: 9.542810E-002,9.542810E-002,9.542810E-002,9.542810E-002,9.542810E-002,9.542810E-002,9.542810E-002,9.542810E-002,9.542810E-002,9.542810E-002,
   **   ~~~   ** Air System Named = CENTRAL SYSTEM did not converge for energy
   **   ~~~   ** Check values should be zero. Most Recent values listed first.
   **   ~~~   ** Demand-to-Supply interface energy check value iteration history trace: 1889.931144,1889.931144,1889.931144,1889.931144,1889.931144,1889.931144,1889.931144,1889.931143,1889.931143,1889.931143,
   **   ~~~   ** Supply-to-demand interface deck 1 energy check value iteration history trace: 2838.956740,2838.956740,2838.956739,2838.956739,2838.956739,2838.956739,2838.956739,2838.956738,2838.956738,2838.956738,
   ** Warning ** SimHVAC: Maximum iterations (20) exceeded for all HVAC loops, at ANNUAL, 02/11 10:25 - 10:26
   **   ~~~   ** The solution for one or more of the Air Loop HVAC systems did not appear to converge
   **   ~~~   ** Air System Named = CENTRAL SYSTEM did not converge for mass flow rate
   **   ~~~   ** Check values should be zero. Most Recent values listed first.
   **   ~~~   ** Demand-to-Supply interface mass flow rate check value iteration history trace: 6.493731E-002,6.493731E-002,6.493731E-002,6.493731E-002,6.493731E-002,6.493731E-002,6.493731E-002,6.493731E-002,6.493731E-002,6.493731E-002,
   **   ~~~   ** Supply-to-demand interface deck 1 mass flow rate check value iteration history trace: 6.493731E-002,6.493731E-002,6.493731E-002,6.493731E-002,6.493731E-002,6.493731E-002,6.493731E-002,6.493731E-002,6.493731E-002,6.493731E-002,
   **   ~~~   ** Air System Named = CENTRAL SYSTEM did not converge for energy
   **   ~~~   ** Check values should be zero. Most Recent values listed first.
   **   ~~~   ** Demand-to-Supply interface energy check value iteration history trace: 1283.936942,1283.936942,1283.936942,1283.936942,1283.936941,1283.936941,1283.936941,1283.936941,1283.936941,1283.936941,
   **   ~~~   ** Supply-to-demand interface deck 1 energy check value iteration history trace: 2211.195748,2211.195748,2211.195748,2211.195748,2211.195747,2211.195747,2211.195747,2211.195747,2211.195747,2211.195747,
   ** Warning ** SimHVAC: Maximum iterations (20) exceeded for all HVAC loops, at ANNUAL, 03/06 07:30 - 07:45
   **   ~~~   ** The solution for one or more of the Air Loop HVAC systems did not appear to converge
   **   ~~~   ** Air System Named = CENTRAL SYSTEM did not converge for mass flow rate
   **   ~~~   ** Check values should be zero. Most Recent values listed first.
   **   ~~~   ** Demand-to-Supply interface mass flow rate check value iteration history trace: 9.384757E-002,9.384757E-002,9.384757E-002,9.384757E-002,9.384757E-002,9.384757E-002,9.384757E-002,9.384757E-002,9.384757E-002,9.384757E-002,
   **   ~~~   ** Supply-to-demand interface deck 1 mass flow rate check value iteration history trace: 9.384757E-002,9.384757E-002,9.384757E-002,9.384757E-002,9.384757E-002,9.384757E-002,9.384757E-002,9.384757E-002,9.384757E-002,9.384757E-002,
   **   ~~~   ** Air System Named = CENTRAL SYSTEM did not converge for energy
   **   ~~~   ** Check values should be zero. Most Recent values listed first.
   **   ~~~   ** Demand-to-Supply interface energy check value iteration history trace: 2198.948515,2198.948515,2198.948516,2198.948516,2198.948516,2198.948517,2198.948517,2198.948518,2198.948518,2198.948518,
   **   ~~~   ** Supply-to-demand interface deck 1 energy check value iteration history trace: 1247.172279,1247.172279,1247.172279,1247.172279,1247.172280,1247.172280,1247.172280,1247.172280,1247.172281,1247.172281,
   ** Warning ** SimHVAC: Maximum iterations (20) exceeded for all HVAC loops, at ANNUAL, 03/07 09:15 - 09:30
   **   ~~~   ** The solution for one or more of the Air Loop HVAC systems did not appear to converge
   **   ~~~   ** Air System Named = CENTRAL SYSTEM did not converge for mass flow rate
   **   ~~~   ** Check values should be zero. Most Recent values listed first.
   **   ~~~   ** Demand-to-Supply interface mass flow rate check value iteration history trace: 0.138520,0.138520,0.138520,0.138520,0.138520,0.138520,0.138520,0.138520,0.138520,0.138520,
   **   ~~~   ** Supply-to-demand interface deck 1 mass flow rate check value iteration history trace: 0.138520,0.138520,0.138520,0.138520,0.138520,0.138520,0.138520,0.138520,0.138520,0.138520,
   **   ~~~   ** Air System Named = CENTRAL SYSTEM did not converge for energy
   **   ~~~   ** Check values should be zero. Most Recent values listed first.
   **   ~~~   ** Demand-to-Supply interface energy check value iteration history trace: 3330.782780,3330.782780,3330.782780,3330.782781,3330.782781,3330.782781,3330.782781,3330.782782,3330.782782,3330.782782,
   **   ~~~   ** Supply-to-demand interface deck 1 energy check value iteration history trace: 1929.869281,1929.869281,1929.869281,1929.869281,1929.869281,1929.869281,1929.869282,1929.869282,1929.869282,1929.869282,
   ** Warning ** SimHVAC: Maximum iterations (20) exceeded for all HVAC loops, at ANNUAL, 03/10 00:30 - 00:45
   **   ~~~   ** The solution for one or more of the Air Loop HVAC systems did not appear to converge
   **   ~~~   ** Air System Named = CENTRAL SYSTEM did not converge for mass flow rate
   **   ~~~   ** Check values should be zero. Most Recent values listed first.
   **   ~~~   ** Demand-to-Supply interface mass flow rate check value iteration history trace: 8.763679E-002,8.763679E-002,8.763679E-002,8.763679E-002,8.763679E-002,8.763679E-002,8.763679E-002,8.763679E-002,8.763679E-002,8.763679E-002,
   **   ~~~   ** Supply-to-demand interface deck 1 mass flow rate check value iteration history trace: 8.763679E-002,8.763679E-002,8.763679E-002,8.763679E-002,8.763679E-002,8.763679E-002,8.763679E-002,8.763679E-002,8.763679E-002,8.763679E-002,
   **   ~~~   ** Air System Named = CENTRAL SYSTEM did not converge for energy
   **   ~~~   ** Check values should be zero. Most Recent values listed first.
   **   ~~~   ** Demand-to-Supply interface energy check value iteration history trace: 2184.301707,2184.301707,2184.301708,2184.301708,2184.301709,2184.301709,2184.301709,2184.301710,2184.301710,2184.301711,
   **   ~~~   ** Supply-to-demand interface deck 1 energy check value iteration history trace: 1163.291928,1163.291928,1163.291928,1163.291929,1163.291929,1163.291929,1163.291929,1163.291930,1163.291930,1163.291930,
   ** Warning ** SimHVAC: Maximum iterations (20) exceeded for all HVAC loops, at ANNUAL, 03/21 09:15 - 09:30
   **   ~~~   ** The solution for one or more of the Air Loop HVAC systems did not appear to converge
   **   ~~~   ** Air System Named = CENTRAL SYSTEM did not converge for mass flow rate
   **   ~~~   ** Check values should be zero. Most Recent values listed first.
   **   ~~~   ** Demand-to-Supply interface mass flow rate check value iteration history trace: 0.116177,0.116177,0.116177,0.116177,0.116177,0.116177,0.116177,0.116177,0.116177,0.116177,
   **   ~~~   ** Supply-to-demand interface deck 1 mass flow rate check value iteration history trace: 0.116177,0.116177,0.116177,0.116177,0.116177,0.116177,0.116177,0.116177,0.116177,0.116177,
   **   ~~~   ** Air System Named = CENTRAL SYSTEM did not converge for energy
   **   ~~~   ** Check values should be zero. Most Recent values listed first.
   **   ~~~   ** Demand-to-Supply interface energy check value iteration history trace: 2781.312219,2781.312220,2781.312220,2781.312220,2781.312220,2781.312220,2781.312220,2781.312221,2781.312221,2781.312221,
   **   ~~~   ** Supply-to-demand interface deck 1 energy check value iteration history trace: 1454.458217,1454.458217,1454.458218,1454.458218,1454.458218,1454.458218,1454.458218,1454.458218,1454.458218,1454.458218,
   ** Warning ** SimHVAC: Maximum iterations (20) exceeded for all HVAC loops, at ANNUAL, 03/25 00:05 - 00:10
   **   ~~~   ** The solution for one or more of the Air Loop HVAC systems did not appear to converge
   **   ~~~   ** Air System Named = CENTRAL SYSTEM did not converge for mass flow rate
   **   ~~~   ** Check values should be zero. Most Recent values listed first.
   **   ~~~   ** Demand-to-Supply interface mass flow rate check value iteration history trace: 9.787163E-002,9.787163E-002,9.787163E-002,9.787163E-002,9.787163E-002,9.787163E-002,9.787163E-002,9.787163E-002,9.787163E-002,9.787163E-002,
   **   ~~~   ** Supply-to-demand interface deck 1 mass flow rate check value iteration history trace: 9.787163E-002,9.787163E-002,9.787163E-002,9.787163E-002,9.787163E-002,9.787163E-002,9.787163E-002,9.787163E-002,9.787163E-002,9.787163E-002,
   **   ~~~   ** Air System Named = CENTRAL SYSTEM did not converge for energy
   **   ~~~   ** Check values should be zero. Most Recent values listed first.
   **   ~~~   ** Demand-to-Supply interface energy check value iteration history trace: 2416.345180,2416.345181,2416.345181,2416.345182,2416.345183,2416.345183,2416.345184,2416.345185,2416.345185,2416.345186,
   **   ~~~   ** Supply-to-demand interface deck 1 energy check value iteration history trace: 1240.416156,1240.416156,1240.416157,1240.416157,1240.416157,1240.416158,1240.416158,1240.416158,1240.416159,1240.416159,
   ** Warning ** SimHVAC: Maximum iterations (20) exceeded for all HVAC loops, at ANNUAL, 04/09 10:10 - 10:12
   **   ~~~   ** The solution for one or more of the Air Loop HVAC systems did not appear to converge
   **   ~~~   ** Air System Named = CENTRAL SYSTEM did not converge for mass flow rate
   **   ~~~   ** Check values should be zero. Most Recent values listed first.
   **   ~~~   ** Demand-to-Supply interface mass flow rate check value iteration history trace: 0.274522,0.274522,0.274522,0.274522,0.274522,0.274522,0.274522,0.274522,0.274522,0.274522,
   **   ~~~   ** Supply-to-demand interface deck 1 mass flow rate check value iteration history trace: 0.274522,0.274522,0.274522,0.274522,0.274522,0.274522,0.274522,0.274522,0.274522,0.274522,
   **   ~~~   ** Air System Named = CENTRAL SYSTEM did not converge for energy
   **   ~~~   ** Check values should be zero. Most Recent values listed first.
   **   ~~~   ** Demand-to-Supply interface energy check value iteration history trace: 6553.632698,6553.632699,6553.632699,6553.632699,6553.632700,6553.632700,6553.632701,6553.632701,6553.632701,6553.632702,
   **   ~~~   ** Supply-to-demand interface deck 1 energy check value iteration history trace: 3031.171011,3031.171011,3031.171011,3031.171011,3031.171011,3031.171012,3031.171012,3031.171012,3031.171012,3031.171012,
   ** Warning ** SimHVAC: Maximum iterations (20) exceeded for all HVAC loops, at ANNUAL, 12/17 11:02 - 11:04
   **   ~~~   ** The solution for one or more of the Air Loop HVAC systems did not appear to converge
   **   ~~~   ** Air System Named = CENTRAL SYSTEM did not converge for mass flow rate
   **   ~~~   ** Check values should be zero. Most Recent values listed first.
   **   ~~~   ** Demand-to-Supply interface mass flow rate check value iteration history trace: 6.337421E-002,6.337421E-002,6.337421E-002,6.337421E-002,6.337421E-002,6.337421E-002,6.337421E-002,6.337421E-002,6.337421E-002,6.337421E-002,
   **   ~~~   ** Supply-to-demand interface deck 1 mass flow rate check value iteration history trace: 6.337421E-002,6.337421E-002,6.337421E-002,6.337421E-002,6.337421E-002,6.337421E-002,6.337421E-002,6.337421E-002,6.337421E-002,6.337421E-002,
   **   ~~~   ** Air System Named = CENTRAL SYSTEM did not converge for energy
   **   ~~~   ** Check values should be zero. Most Recent values listed first.
   **   ~~~   ** Demand-to-Supply interface energy check value iteration history trace: 1252.134830,1252.134830,1252.134830,1252.134830,1252.134830,1252.134830,1252.134830,1252.134830,1252.134829,1252.134829,
   **   ~~~   ** Supply-to-demand interface deck 1 energy check value iteration history trace: 2233.394323,2233.394323,2233.394323,2233.394323,2233.394323,2233.394322,2233.394322,2233.394322,2233.394322,2233.394322,
   ** Warning ** SimHVAC: Maximum iterations (20) exceeded for all HVAC loops, at ANNUAL, 12/18 07:00 - 07:15
   **   ~~~   ** The solution for one or more of the Air Loop HVAC systems did not appear to converge
   **   ~~~   ** Air System Named = CENTRAL SYSTEM did not converge for mass flow rate
   **   ~~~   ** Check values should be zero. Most Recent values listed first.
   **   ~~~   ** Demand-to-Supply interface mass flow rate check value iteration history trace: 6.284438E-002,6.284438E-002,6.284438E-002,6.284438E-002,6.284438E-002,6.284438E-002,6.284438E-002,6.284438E-002,6.284438E-002,6.284438E-002,
   **   ~~~   ** Supply-to-demand interface deck 1 mass flow rate check value iteration history trace: 6.284438E-002,6.284438E-002,6.284438E-002,6.284438E-002,6.284438E-002,6.284438E-002,6.284438E-002,6.284438E-002,6.284438E-002,6.284438E-002,
   **   ~~~   ** Air System Named = CENTRAL SYSTEM did not converge for energy
   **   ~~~   ** Check values should be zero. Most Recent values listed first.
   **   ~~~   ** Demand-to-Supply interface energy check value iteration history trace: 1234.336247,1234.336247,1234.336247,1234.336247,1234.336247,1234.336247,1234.336247,1234.336247,1234.336247,1234.336247,
   **   ~~~   ** Supply-to-demand interface deck 1 energy check value iteration history trace: 2142.174345,2142.174345,2142.174345,2142.174345,2142.174345,2142.174345,2142.174345,2142.174345,2142.174345,2142.174345,
   ** Warning ** SimHVAC: Maximum iterations (20) exceeded for all HVAC loops, at ANNUAL, 12/25 08:15 - 08:20
   **   ~~~   ** The solution for one or more of the Air Loop HVAC systems did not appear to converge
   **   ~~~   ** Air System Named = CENTRAL SYSTEM did not converge for mass flow rate
   **   ~~~   ** Check values should be zero. Most Recent values listed first.
   **   ~~~   ** Demand-to-Supply interface mass flow rate check value iteration history trace: 2.029823E-002,2.029823E-002,2.029823E-002,2.029823E-002,2.029823E-002,2.029823E-002,2.029823E-002,2.029823E-002,2.029823E-002,2.029823E-002,
   **   ~~~   ** Supply-to-demand interface deck 1 mass flow rate check value iteration history trace: 2.029823E-002,2.029823E-002,2.029823E-002,2.029823E-002,2.029823E-002,2.029823E-002,2.029823E-002,2.029823E-002,2.029823E-002,2.029823E-002,
   **   ~~~   ** Air System Named = CENTRAL SYSTEM did not converge for energy
   **   ~~~   ** Check values should be zero. Most Recent values listed first.
   **   ~~~   ** Demand-to-Supply interface energy check value iteration history trace: 402.220363,402.220363,402.220363,402.220363,402.220363,402.220363,402.220363,402.220363,402.220363,402.220363,
   **   ~~~   ** Supply-to-demand interface deck 1 energy check value iteration history trace: 687.346362,687.346362,687.346362,687.346362,687.346362,687.346362,687.346362,687.346362,687.346362,687.346362,
   ************* Simulation Error Summary *************
   ** Warning ** The following Report Variables were requested but not generated -- check.rdd file
   **   ~~~   ** Either the IDF did not contain these elements, the variable name is misspelled,
   **   ~~~   ** or the requested variable is an advanced output which requires Output : Diagnostics, DisplayAdvancedReportVariables;
   ************* Key=*, VarName=BASEBOARD TOTAL HEATING ENERGY, Frequency=
   ************* Key=*, VarName=WATER HEATER NATURALGAS ENERGY, Frequency=
   ************* Key=*, VarName=COOLING COIL TOTAL HEATING ENERGY, Frequency=
   ************* There are 34 unused schedules in input.
   ************* There are 388 unused week schedules in input.
   ************* There are 396 unused day schedules in input.
   ************* Use Output:Diagnostics,DisplayUnusedSchedules; to see them.
   *************
   ************* ===== Recurring Error Summary =====
   ************* The following recurring error messages occurred.
   *************
   *************  ** Warning ** "TOTAL HOT WATER LOAD" - Target water temperature should be less than or equal to the hot water temperature error continues...
   *************  **   ~~~   **   This error occurred 160407 total times;
   *************  **   ~~~   **   during Warmup 0 times;
   *************  **   ~~~   **   during Sizing 0 times.
   *************  **   ~~~   **   Max=8.543944  Min=1.525682E-003
   *************
   *************
   ************* ===== Final Error Summary =====
   ************* The following error categories occurred.  Consider correcting or noting.
   ************* Loads Initialization did not Converge
   ************* ..1) very high thermal mass such as very thick concrete (solution: increase max number of warmup
   ************* ..   days in the BUILDING object);
   ************* ..2) moderate mass and inadequate space conditioning such that the building keeps getting warmer
   ************* ..   and warmer on successive days (solution: add HVAC, check building thermal properties,
   ************* ..   check if infiltration is included, make sure HVAC properly controlled);
   ************* ..3) a soil layer modeled below the concrete slab - (solution remove this layer and read about
   ************* ..   ground temperatures in the Auxiliary Programs document).
   ************* ..4) unreasonable (too small) limits in the BUILDING object for temperature (.4 default) or
   ************* ..   loads tolerances (.04 default)
   ************* Nominally Unused Constructions
   ************* ..The nominally unused constructions warning is provided to alert you to potential conditions that can cause
   ************* ..extra time during simulation. Each construction is calculated by the algorithm indicated in the HeatBalanceAlgorithm
   ************* ..object. You may remove the constructions indicated (when you use the DisplayExtraWarnings option).
   *************
   ************* EnergyPlus Warmup Error Summary. During Warmup: 1 Warning; 2 Severe Errors.
   ************* EnergyPlus Sizing Error Summary. During Sizing: 4 Warning; 0 Severe Errors.
   ************* EnergyPlus Completed Successfully-- 160438 Warning; 2 Severe Errors; Elapsed Time=00hr 01min 57.56sec
