Program Version,EnergyPlus, Version 22.2.0-c249759bad, YMD=2023.09.01 20:06,
   ************* Beginning Zone Sizing Calculations
   ** Warning ** ProcessScheduleInput: Schedule:Constant="ALWAYS ON DISCRETE", Schedule Type Limits Name="ONOFF" not found -- will not be validated
   ** Warning ** Foundation:Kiva="KIVA FOUNDATION", no Interior Horizontal Insulation Material Name defined
   **   ~~~   ** Interior Horizontal Insulation Depth will not be used.
   ** Warning ** CheckUsedConstructions: There are 15 nominally unused constructions in input.
   **   ~~~   ** Each Unused construction is shown.
   ************* Construction=INTERIOR FLOOR
   ************* Construction=INTERIOR WINDOW
   ************* Construction=EXTERIOR DOOR
   ************* Construction=INTERIOR DOOR
   ************* Construction=GABLE CONSTRUCTION
   ************* Construction=CRAWL_FLOOR
   ************* Construction=INSULATED PIPE
   ************* Construction=PLAIN PIPE
   ************* Construction=TDD PIPE
   ************* Construction=TDD DOME
   ************* Construction=TDD DIFFUSER
   ************* Construction=CRAWL WALL
   ************* Construction=CEILING-FLOOR-LAYER
   ************* Construction=SLAB CONSTRUCTION W FULL R10 INSULATION
   ************* Construction=SLAB CONSTRUCTION W FULL R5 INSULATION
   ** Warning ** GetDXCoils: Coil:Heating:DX:SingleSpeed="DX_HEATING_COIL" curve values
   **   ~~~   ** ... Defrost Energy Input Ratio Function of Temperature Curve Name = DEFROSTEIR output is not equal to 1.0 (+ or - 10%) at rated conditions.
   **   ~~~   ** ... Curve output at rated conditions = 0.152
   ************* Beginning System Sizing Calculations
   ************* Beginning Plant Sizing Calculations
   ** Warning ** SizeDXCoil Coil:Cooling:DX:SingleSpeed DX_COOLING_COIL
   **   ~~~   ** ...Gross Rated Total Cooling Capacity [W] will be limited by the maximum rated volume flow per rated total capacity ratio.
   **   ~~~   ** ...DX coil volume flow rate ( m3/s ) = 0.543637
   **   ~~~   ** ...Requested capacity ( W ) = 6853.582
   **   ~~~   ** ...Requested flow/capacity ratio ( m3/s/W ) = 7.932E-005
   **   ~~~   ** ...Maximum flow/capacity ratio ( m3/s/W ) = 6.041E-005
   **   ~~~   ** ...Adjusted capacity ( W ) = 8999.129
   ** Warning ** Coil:WaterHeating:AirToWaterHeatPump:Wrapped "HEAT PUMP WATER HEATER EVAPORATOR": Rated air volume flow rate per watt of rated total water heating capacity is out of range
   **   ~~~   ** Min Rated Vol Flow Per Watt=[4.027E-005], Rated Vol Flow Per Watt=[1.510E-004], Max Rated Vol Flow Per Watt=[8.056E-005]. See Input-Output Reference Manual for valid range.
   ************* SizeFan: : Potential issue with equipment sizing for Fan:OnOff HEAT PUMP WATER HEATER FAN
   **   ~~~   ** User-Specified Maximum Flow Rate [m3/s] = 0.22653
   **   ~~~   ** differs from Design Size Maximum Flow Rate [m3/s] = 7.55250E-002
   **   ~~~   ** This may, or may not, indicate mismatched component sizes.
   **   ~~~   ** Verify that the value entered is intended and is consistent with other components.
   ** Warning ** Water heater = WATER HEATER TANK:  Recovery Efficiency and Energy Factor could not be calculated during the test for standard ratings
   **   ~~~   ** Setpoint was never recovered and/or heater never turned on
   ** Warning ** Check input. Pump nominal power or motor efficiency is set to 0, for pump=MAINS PRESSURE
   ** Warning ** Output:Meter: invalid Key Name="ELECTRIC_RANGE:INTERIOREQUIPMENT:ELECTRICITY" - not found.
   ** Warning ** Output:Meter: invalid Key Name="ELECTRIC_DRYER:INTERIOREQUIPMENT:ELECTRICITY" - not found.
   ** Warning ** Output:Meter: invalid Key Name="HEATRECOVERY:ELECTRICITY" - not found.
   ** Warning ** Output:Meter: invalid Key Name="HEATING:NATURALGAS" - not found.
   ** Warning ** Output:Meter: invalid Key Name="WATERSYSTEMS:NATURALGAS" - not found.
   ** Warning ** Output:Meter: invalid Key Name="PROPANE:FACILITY" - not found.
   ** Warning ** Output:Meter: invalid Key Name="HEATING:PROPANE" - not found.
   ************* Testing Individual Branch Integrity
   ************* All Branches passed integrity testing
   ************* Testing Individual Supply Air Path Integrity
   ************* All Supply Air Paths passed integrity testing
   ************* Testing Individual Return Air Path Integrity
   ************* All Return Air Paths passed integrity testing
   ************* No node connection errors were found.
   ************* Beginning Simulation
   ** Warning ** AirflowNetwork::Solver::validate_distribution: Heat pump water heater is simulated along with an AirflowNetwork but is not included in the AirflowNetwork.
   ** Warning ** CalcEquipmentFlowRates: "TOTAL HOT WATER LOAD" - Target water temperature is greater than the hot water temperature by (3.90 C)
   **   ~~~   **  Environment=EXTREME_WINTER, at Simulation time=12/22 07:00 - 07:15
   **   ~~~   ** ...target water temperature     = 53.33 C
   **   ~~~   ** ...hot water temperature        = 49.43 C
   **   ~~~   ** ...Target water temperature should be less than or equal to the hot water temperature. Verify temperature setpoints and schedules.
   ** Warning ** SimHVAC: Maximum iterations (20) exceeded for all HVAC loops, at ANNUAL, 01/11 18:05 - 18:10
   **   ~~~   ** The solution for one or more of the Air Loop HVAC systems did not appear to converge
   **   ~~~   ** Air System Named = CENTRAL SYSTEM did not converge for mass flow rate
   **   ~~~   ** Check values should be zero. Most Recent values listed first.
   **   ~~~   ** Demand-to-Supply interface mass flow rate check value iteration history trace: 6.944145E-002,6.944145E-002,6.944145E-002,6.944145E-002,6.944145E-002,6.944145E-002,6.944145E-002,6.944145E-002,6.944145E-002,6.944145E-002,
   **   ~~~   ** Supply-to-demand interface deck 1 mass flow rate check value iteration history trace: 6.944145E-002,6.944145E-002,6.944145E-002,6.944145E-002,6.944145E-002,6.944145E-002,6.944145E-002,6.944145E-002,6.944145E-002,6.944145E-002,
   **   ~~~   ** Air System Named = CENTRAL SYSTEM did not converge for energy
   **   ~~~   ** Check values should be zero. Most Recent values listed first.
   **   ~~~   ** Demand-to-Supply interface energy check value iteration history trace: 1375.480524,1375.480523,1375.480523,1375.480523,1375.480523,1375.480523,1375.480523,1375.480523,1375.480523,1375.480523,
   **   ~~~   ** Supply-to-demand interface deck 1 energy check value iteration history trace: 2132.188429,2132.188429,2132.188429,2132.188428,2132.188428,2132.188428,2132.188428,2132.188428,2132.188428,2132.188428,
   ** Warning ** SimHVAC: Maximum iterations (20) exceeded for all HVAC loops, at ANNUAL, 01/15 14:45 - 14:52
   **   ~~~   ** The solution for one or more of the Air Loop HVAC systems did not appear to converge
   **   ~~~   ** Air System Named = CENTRAL SYSTEM did not converge for mass flow rate
   **   ~~~   ** Check values should be zero. Most Recent values listed first.
   **   ~~~   ** Demand-to-Supply interface mass flow rate check value iteration history trace: 2.920551E-002,2.920551E-002,2.920551E-002,2.920551E-002,2.920551E-002,2.920551E-002,2.920551E-002,2.920551E-002,2.920551E-002,2.920551E-002,
   **   ~~~   ** Supply-to-demand interface deck 1 mass flow rate check value iteration history trace: 2.920551E-002,2.920551E-002,2.920551E-002,2.920551E-002,2.920551E-002,2.920551E-002,2.920551E-002,2.920551E-002,2.920551E-002,2.920551E-002,
   **   ~~~   ** Air System Named = CENTRAL SYSTEM did not converge for energy
   **   ~~~   ** Check values should be zero. Most Recent values listed first.
   **   ~~~   ** Demand-to-Supply interface energy check value iteration history trace: 579.006495,579.006495,579.006495,579.006495,579.006495,579.006494,579.006494,579.006494,579.006494,579.006494,
   **   ~~~   ** Supply-to-demand interface deck 1 energy check value iteration history trace: 964.379434,964.379434,964.379434,964.379434,964.379434,964.379433,964.379433,964.379433,964.379433,964.379433,
   ** Warning ** SimHVAC: Maximum iterations (20) exceeded for all HVAC loops, at ANNUAL, 01/16 11:06 - 11:09
   **   ~~~   ** The solution for one or more of the Air Loop HVAC systems did not appear to converge
   **   ~~~   ** Air System Named = CENTRAL SYSTEM did not converge for mass flow rate
   **   ~~~   ** Check values should be zero. Most Recent values listed first.
   **   ~~~   ** Demand-to-Supply interface mass flow rate check value iteration history trace: 6.914071E-002,6.914071E-002,6.914071E-002,6.914071E-002,6.914071E-002,6.914071E-002,6.914071E-002,6.914071E-002,6.914071E-002,6.914071E-002,
   **   ~~~   ** Supply-to-demand interface deck 1 mass flow rate check value iteration history trace: 6.914071E-002,6.914071E-002,6.914071E-002,6.914071E-002,6.914071E-002,6.914071E-002,6.914071E-002,6.914071E-002,6.914071E-002,6.914071E-002,
   **   ~~~   ** Air System Named = CENTRAL SYSTEM did not converge for energy
   **   ~~~   ** Check values should be zero. Most Recent values listed first.
   **   ~~~   ** Demand-to-Supply interface energy check value iteration history trace: 1370.159515,1370.159515,1370.159515,1370.159514,1370.159514,1370.159514,1370.159514,1370.159514,1370.159514,1370.159514,
   **   ~~~   ** Supply-to-demand interface deck 1 energy check value iteration history trace: 2274.442643,2274.442643,2274.442643,2274.442643,2274.442643,2274.442643,2274.442643,2274.442642,2274.442642,2274.442642,
   ** Warning ** SimHVAC: Maximum iterations (20) exceeded for all HVAC loops, at ANNUAL, 01/28 23:08 - 23:15
   **   ~~~   ** The solution for one or more of the Air Loop HVAC systems did not appear to converge
   **   ~~~   ** Air System Named = CENTRAL SYSTEM did not converge for mass flow rate
   **   ~~~   ** Check values should be zero. Most Recent values listed first.
   **   ~~~   ** Demand-to-Supply interface mass flow rate check value iteration history trace: 8.027295E-002,8.027295E-002,8.027295E-002,8.027295E-002,8.027295E-002,8.027295E-002,8.027295E-002,8.027295E-002,8.027295E-002,8.027295E-002,
   **   ~~~   ** Supply-to-demand interface deck 1 mass flow rate check value iteration history trace: 8.027295E-002,8.027295E-002,8.027295E-002,8.027295E-002,8.027295E-002,8.027295E-002,8.027295E-002,8.027295E-002,8.027295E-002,8.027295E-002,
   **   ~~~   ** Air System Named = CENTRAL SYSTEM did not converge for energy
   **   ~~~   ** Check values should be zero. Most Recent values listed first.
   **   ~~~   ** Demand-to-Supply interface energy check value iteration history trace: 1497.389246,1497.389246,1497.389246,1497.389246,1497.389246,1497.389246,1497.389246,1497.389246,1497.389246,1497.389245,
   **   ~~~   ** Supply-to-demand interface deck 1 energy check value iteration history trace: 2358.156587,2358.156586,2358.156586,2358.156586,2358.156586,2358.156586,2358.156586,2358.156586,2358.156585,2358.156585,
   ** Warning ** SimHVAC: Maximum iterations (20) exceeded for all HVAC loops, at ANNUAL, 02/02 10:17 - 10:20
   **   ~~~   ** The solution for one or more of the Air Loop HVAC systems did not appear to converge
   **   ~~~   ** Air System Named = CENTRAL SYSTEM did not converge for mass flow rate
   **   ~~~   ** Check values should be zero. Most Recent values listed first.
   **   ~~~   ** Demand-to-Supply interface mass flow rate check value iteration history trace: 7.728915E-002,7.728915E-002,7.728915E-002,7.728915E-002,7.728915E-002,7.728915E-002,7.728915E-002,7.728915E-002,7.728915E-002,7.728915E-002,
   **   ~~~   ** Supply-to-demand interface deck 1 mass flow rate check value iteration history trace: 7.728915E-002,7.728915E-002,7.728915E-002,7.728915E-002,7.728915E-002,7.728915E-002,7.728915E-002,7.728915E-002,7.728915E-002,7.728915E-002,
   **   ~~~   ** Air System Named = CENTRAL SYSTEM did not converge for energy
   **   ~~~   ** Check values should be zero. Most Recent values listed first.
   **   ~~~   ** Demand-to-Supply interface energy check value iteration history trace: 1531.669327,1531.669326,1531.669326,1531.669326,1531.669326,1531.669326,1531.669326,1531.669326,1531.669326,1531.669326,
   **   ~~~   ** Supply-to-demand interface deck 1 energy check value iteration history trace: 2586.001344,2586.001343,2586.001343,2586.001343,2586.001343,2586.001343,2586.001343,2586.001343,2586.001343,2586.001342,
   ** Warning ** SimHVAC: Maximum iterations (20) exceeded for all HVAC loops, at ANNUAL, 02/10 10:30 - 10:33
   **   ~~~   ** The solution for one or more of the Air Loop HVAC systems did not appear to converge
   **   ~~~   ** Air System Named = CENTRAL SYSTEM did not converge for mass flow rate
   **   ~~~   ** Check values should be zero. Most Recent values listed first.
   **   ~~~   ** Demand-to-Supply interface mass flow rate check value iteration history trace: 7.424634E-002,7.424634E-002,7.424634E-002,7.424634E-002,7.424634E-002,7.424634E-002,7.424634E-002,7.424634E-002,7.424634E-002,7.424634E-002,
   **   ~~~   ** Supply-to-demand interface deck 1 mass flow rate check value iteration history trace: 7.424634E-002,7.424634E-002,7.424634E-002,7.424634E-002,7.424634E-002,7.424634E-002,7.424634E-002,7.424634E-002,7.424634E-002,7.424634E-002,
   **   ~~~   ** Air System Named = CENTRAL SYSTEM did not converge for energy
   **   ~~~   ** Check values should be zero. Most Recent values listed first.
   **   ~~~   ** Demand-to-Supply interface energy check value iteration history trace: 1471.300059,1471.300059,1471.300059,1471.300059,1471.300058,1471.300058,1471.300058,1471.300058,1471.300058,1471.300058,
   **   ~~~   ** Supply-to-demand interface deck 1 energy check value iteration history trace: 2506.471237,2506.471237,2506.471237,2506.471237,2506.471237,2506.471236,2506.471236,2506.471236,2506.471236,2506.471236,
   ** Warning ** SimHVAC: Maximum iterations (20) exceeded for all HVAC loops, at ANNUAL, 02/12 10:30 - 10:34
   **   ~~~   ** The solution for one or more of the Air Loop HVAC systems did not appear to converge
   **   ~~~   ** Air System Named = CENTRAL SYSTEM did not converge for mass flow rate
   **   ~~~   ** Check values should be zero. Most Recent values listed first.
   **   ~~~   ** Demand-to-Supply interface mass flow rate check value iteration history trace: 6.261642E-002,6.261642E-002,6.261642E-002,6.261642E-002,6.261642E-002,6.261642E-002,6.261642E-002,6.261642E-002,6.261642E-002,6.261642E-002,
   **   ~~~   ** Supply-to-demand interface deck 1 mass flow rate check value iteration history trace: 6.261642E-002,6.261642E-002,6.261642E-002,6.261642E-002,6.261642E-002,6.261642E-002,6.261642E-002,6.261642E-002,6.261642E-002,6.261642E-002,
   **   ~~~   ** Air System Named = CENTRAL SYSTEM did not converge for energy
   **   ~~~   ** Check values should be zero. Most Recent values listed first.
   **   ~~~   ** Demand-to-Supply interface energy check value iteration history trace: 1236.124401,1236.124401,1236.124401,1236.124401,1236.124401,1236.124401,1236.124400,1236.124400,1236.124400,1236.124400,
   **   ~~~   ** Supply-to-demand interface deck 1 energy check value iteration history trace: 2265.480374,2265.480373,2265.480373,2265.480373,2265.480373,2265.480373,2265.480373,2265.480373,2265.480373,2265.480373,
   ** Warning ** SimHVAC: Maximum iterations (20) exceeded for all HVAC loops, at ANNUAL, 02/12 11:53 - 11:56
   **   ~~~   ** The solution for one or more of the Air Loop HVAC systems did not appear to converge
   **   ~~~   ** Air System Named = CENTRAL SYSTEM did not converge for mass flow rate
   **   ~~~   ** Check values should be zero. Most Recent values listed first.
   **   ~~~   ** Demand-to-Supply interface mass flow rate check value iteration history trace: 5.427663E-002,5.427663E-002,5.427663E-002,5.427663E-002,5.427663E-002,5.427663E-002,5.427663E-002,5.427663E-002,5.427663E-002,5.427663E-002,
   **   ~~~   ** Supply-to-demand interface deck 1 mass flow rate check value iteration history trace: 5.427663E-002,5.427663E-002,5.427663E-002,5.427663E-002,5.427663E-002,5.427663E-002,5.427663E-002,5.427663E-002,5.427663E-002,5.427663E-002,
   **   ~~~   ** Air System Named = CENTRAL SYSTEM did not converge for energy
   **   ~~~   ** Check values should be zero. Most Recent values listed first.
   **   ~~~   ** Demand-to-Supply interface energy check value iteration history trace: 1065.908196,1065.908196,1065.908196,1065.908196,1065.908196,1065.908196,1065.908196,1065.908195,1065.908195,1065.908195,
   **   ~~~   ** Supply-to-demand interface deck 1 energy check value iteration history trace: 2001.456332,2001.456332,2001.456332,2001.456332,2001.456332,2001.456332,2001.456332,2001.456332,2001.456332,2001.456332,
   ** Warning ** SimHVAC: Maximum iterations (20) exceeded for all HVAC loops, at ANNUAL, 02/15 11:18 - 11:21
   **   ~~~   ** The solution for one or more of the Air Loop HVAC systems did not appear to converge
   **   ~~~   ** Air System Named = CENTRAL SYSTEM did not converge for mass flow rate
   **   ~~~   ** Check values should be zero. Most Recent values listed first.
   **   ~~~   ** Demand-to-Supply interface mass flow rate check value iteration history trace: 5.729849E-002,5.729849E-002,5.729849E-002,5.729849E-002,5.729849E-002,5.729849E-002,5.729849E-002,5.729849E-002,5.729849E-002,5.729849E-002,
   **   ~~~   ** Supply-to-demand interface deck 1 mass flow rate check value iteration history trace: 5.729849E-002,5.729849E-002,5.729849E-002,5.729849E-002,5.729849E-002,5.729849E-002,5.729849E-002,5.729849E-002,5.729849E-002,5.729849E-002,
   **   ~~~   ** Air System Named = CENTRAL SYSTEM did not converge for energy
   **   ~~~   ** Check values should be zero. Most Recent values listed first.
   **   ~~~   ** Demand-to-Supply interface energy check value iteration history trace: 1132.252157,1132.252157,1132.252157,1132.252157,1132.252157,1132.252157,1132.252157,1132.252157,1132.252157,1132.252157,
   **   ~~~   ** Supply-to-demand interface deck 1 energy check value iteration history trace: 2079.594459,2079.594459,2079.594459,2079.594459,2079.594458,2079.594458,2079.594458,2079.594458,2079.594458,2079.594458,
   ** Warning ** SimHVAC: Maximum iterations (20) exceeded for all HVAC loops, at ANNUAL, 02/15 11:40 - 11:42
   **   ~~~   ** The solution for one or more of the Air Loop HVAC systems did not appear to converge
   **   ~~~   ** Air System Named = CENTRAL SYSTEM did not converge for mass flow rate
   **   ~~~   ** Check values should be zero. Most Recent values listed first.
   **   ~~~   ** Demand-to-Supply interface mass flow rate check value iteration history trace: 5.467460E-002,5.467460E-002,5.467460E-002,5.467460E-002,5.467460E-002,5.467460E-002,5.467460E-002,5.467460E-002,5.467460E-002,5.467460E-002,
   **   ~~~   ** Supply-to-demand interface deck 1 mass flow rate check value iteration history trace: 5.467460E-002,5.467460E-002,5.467460E-002,5.467460E-002,5.467460E-002,5.467460E-002,5.467460E-002,5.467460E-002,5.467460E-002,5.467460E-002,
   **   ~~~   ** Air System Named = CENTRAL SYSTEM did not converge for energy
   **   ~~~   ** Check values should be zero. Most Recent values listed first.
   **   ~~~   ** Demand-to-Supply interface energy check value iteration history trace: 1080.235776,1080.235776,1080.235776,1080.235776,1080.235776,1080.235776,1080.235776,1080.235776,1080.235776,1080.235776,
   **   ~~~   ** Supply-to-demand interface deck 1 energy check value iteration history trace: 1997.070760,1997.070760,1997.070760,1997.070760,1997.070760,1997.070760,1997.070759,1997.070759,1997.070759,1997.070759,
   ** Warning ** SimHVAC: Maximum iterations (20) exceeded for all HVAC loops, at ANNUAL, 02/18 10:00 - 10:15
   **   ~~~   ** The solution for one or more of the Air Loop HVAC systems did not appear to converge
   **   ~~~   ** Air System Named = CENTRAL SYSTEM did not converge for mass flow rate
   **   ~~~   ** Check values should be zero. Most Recent values listed first.
   **   ~~~   ** Demand-to-Supply interface mass flow rate check value iteration history trace: 6.908147E-002,6.908147E-002,6.908147E-002,6.908147E-002,6.908147E-002,6.908147E-002,6.908147E-002,6.908147E-002,6.908147E-002,6.908147E-002,
   **   ~~~   ** Supply-to-demand interface deck 1 mass flow rate check value iteration history trace: 6.908147E-002,6.908147E-002,6.908147E-002,6.908147E-002,6.908147E-002,6.908147E-002,6.908147E-002,6.908147E-002,6.908147E-002,6.908147E-002,
   **   ~~~   ** Air System Named = CENTRAL SYSTEM did not converge for energy
   **   ~~~   ** Check values should be zero. Most Recent values listed first.
   **   ~~~   ** Demand-to-Supply interface energy check value iteration history trace: 1368.947991,1368.947991,1368.947990,1368.947990,1368.947990,1368.947990,1368.947990,1368.947990,1368.947990,1368.947990,
   **   ~~~   ** Supply-to-demand interface deck 1 energy check value iteration history trace: 2305.895671,2305.895671,2305.895670,2305.895670,2305.895670,2305.895670,2305.895670,2305.895670,2305.895670,2305.895670,
   ** Warning ** SimHVAC: Maximum iterations (20) exceeded for all HVAC loops, at ANNUAL, 03/04 09:20 - 09:25
   **   ~~~   ** The solution for one or more of the Air Loop HVAC systems did not appear to converge
   **   ~~~   ** Air System Named = CENTRAL SYSTEM did not converge for mass flow rate
   **   ~~~   ** Check values should be zero. Most Recent values listed first.
   **   ~~~   ** Demand-to-Supply interface mass flow rate check value iteration history trace: 5.396614E-002,5.396614E-002,5.396614E-002,5.396614E-002,5.396614E-002,5.396614E-002,5.396614E-002,5.396614E-002,5.396614E-002,5.396614E-002,
   **   ~~~   ** Supply-to-demand interface deck 1 mass flow rate check value iteration history trace: 5.396614E-002,5.396614E-002,5.396614E-002,5.396614E-002,5.396614E-002,5.396614E-002,5.396614E-002,5.396614E-002,5.396614E-002,5.396614E-002,
   **   ~~~   ** Air System Named = CENTRAL SYSTEM did not converge for energy
   **   ~~~   ** Check values should be zero. Most Recent values listed first.
   **   ~~~   ** Demand-to-Supply interface energy check value iteration history trace: 1065.157527,1065.157527,1065.157527,1065.157527,1065.157527,1065.157527,1065.157527,1065.157527,1065.157527,1065.157527,
   **   ~~~   ** Supply-to-demand interface deck 1 energy check value iteration history trace: 2106.823980,2106.823980,2106.823980,2106.823980,2106.823980,2106.823980,2106.823980,2106.823980,2106.823980,2106.823980,
   ** Warning ** SimHVAC: Maximum iterations (20) exceeded for all HVAC loops, at ANNUAL, 03/18 08:36 - 08:39
   **   ~~~   ** The solution for one or more of the Air Loop HVAC systems did not appear to converge
   **   ~~~   ** Air System Named = CENTRAL SYSTEM did not converge for mass flow rate
   **   ~~~   ** Check values should be zero. Most Recent values listed first.
   **   ~~~   ** Demand-to-Supply interface mass flow rate check value iteration history trace: 5.833783E-002,5.833783E-002,5.833783E-002,5.833783E-002,5.833783E-002,5.833783E-002,5.833783E-002,5.833783E-002,5.833783E-002,5.833783E-002,
   **   ~~~   ** Supply-to-demand interface deck 1 mass flow rate check value iteration history trace: 5.833783E-002,5.833783E-002,5.833783E-002,5.833783E-002,5.833783E-002,5.833783E-002,5.833783E-002,5.833783E-002,5.833783E-002,5.833783E-002,
   **   ~~~   ** Air System Named = CENTRAL SYSTEM did not converge for energy
   **   ~~~   ** Check values should be zero. Most Recent values listed first.
   **   ~~~   ** Demand-to-Supply interface energy check value iteration history trace: 1155.503960,1155.503960,1155.503960,1155.503960,1155.503960,1155.503960,1155.503960,1155.503960,1155.503960,1155.503960,
   **   ~~~   ** Supply-to-demand interface deck 1 energy check value iteration history trace: 2179.307926,2179.307926,2179.307926,2179.307925,2179.307925,2179.307925,2179.307925,2179.307925,2179.307925,2179.307925,
   ** Warning ** Temperature out of range [-100. to 200.] (PsyPsatFnTemp)
   **   ~~~   **  Routine=PsyTwbFnTdbWPb, Environment=ANNUAL, at Simulation time=04/17 05:00 - 05:05
   **   ~~~   **  Input Temperature=-139.86
   ** Warning ** SimHVAC: Maximum iterations (20) exceeded for all HVAC loops, at ANNUAL, 04/19 08:45 - 09:00
   **   ~~~   ** The solution for one or more of the Air Loop HVAC systems did not appear to converge
   **   ~~~   ** Air System Named = CENTRAL SYSTEM did not converge for mass flow rate
   **   ~~~   ** Check values should be zero. Most Recent values listed first.
   **   ~~~   ** Demand-to-Supply interface mass flow rate check value iteration history trace: 6.944339E-002,6.944339E-002,6.944339E-002,6.944339E-002,6.944339E-002,6.944339E-002,6.944339E-002,6.944339E-002,6.944339E-002,6.944339E-002,
   **   ~~~   ** Supply-to-demand interface deck 1 mass flow rate check value iteration history trace: 6.944339E-002,6.944339E-002,6.944339E-002,6.944339E-002,6.944339E-002,6.944339E-002,6.944339E-002,6.944339E-002,6.944339E-002,6.944339E-002,
   **   ~~~   ** Air System Named = CENTRAL SYSTEM did not converge for energy
   **   ~~~   ** Check values should be zero. Most Recent values listed first.
   **   ~~~   ** Demand-to-Supply interface energy check value iteration history trace: 1376.156614,1376.156614,1376.156614,1376.156614,1376.156614,1376.156614,1376.156614,1376.156614,1376.156614,1376.156613,
   **   ~~~   ** Supply-to-demand interface deck 1 energy check value iteration history trace: 2359.006627,2359.006627,2359.006627,2359.006627,2359.006627,2359.006627,2359.006627,2359.006626,2359.006626,2359.006626,
   ************* Simulation Error Summary *************
   ** Warning ** The following Report Variables were requested but not generated -- check.rdd file
   **   ~~~   ** Either the IDF did not contain these elements, the variable name is misspelled,
   **   ~~~   ** or the requested variable is an advanced output which requires Output : Diagnostics, DisplayAdvancedReportVariables;
   ************* Key=*, VarName=BASEBOARD TOTAL HEATING ENERGY, Frequency=
   ************* Key=*, VarName=WATER HEATER NATURALGAS ENERGY, Frequency=
   ************* Key=*, VarName=COOLING COIL TOTAL HEATING ENERGY, Frequency=
   ************* There are 34 unused schedules in input.
   ************* There are 388 unused week schedules in input.
   ************* There are 396 unused day schedules in input.
   ************* Use Output:Diagnostics,DisplayUnusedSchedules; to see them.
   *************
   ************* ===== Recurring Error Summary =====
   ************* The following recurring error messages occurred.
   *************
   *************  ** Warning ** "TOTAL HOT WATER LOAD" - Target water temperature should be less than or equal to the hot water temperature error continues...
   *************  **   ~~~   **   This error occurred 209629 total times;
   *************  **   ~~~   **   during Warmup 0 times;
   *************  **   ~~~   **   during Sizing 0 times.
   *************  **   ~~~   **   Max=12.959001  Min=4.002887E-003
   *************
   *************  ** Warning ** Temperature out of range [-100. to 200.] (PsyPsatFnTemp)
   *************  **   ~~~   **   This error occurred 4 total times;
   *************  **   ~~~   **   during Warmup 0 times;
   *************  **   ~~~   **   during Sizing 0 times.
   *************  **   ~~~   **   Max=-109.393131 C  Min=-139.868759 C
   *************
   *************  ** Warning ** SimHVAC: Exceeding Maximum iterations for all HVAC loops, during ANNUAL continues
   *************  **   ~~~   **   This error occurred 9 total times;
   *************  **   ~~~   **   during Warmup 0 times;
   *************  **   ~~~   **   during Sizing 0 times.
   *************
   *************
   ************* ===== Final Error Summary =====
   ************* The following error categories occurred.  Consider correcting or noting.
   ************* Nominally Unused Constructions
   ************* ..The nominally unused constructions warning is provided to alert you to potential conditions that can cause
   ************* ..extra time during simulation. Each construction is calculated by the algorithm indicated in the HeatBalanceAlgorithm
   ************* ..object. You may remove the constructions indicated (when you use the DisplayExtraWarnings option).
   *************
   ************* EnergyPlus Warmup Error Summary. During Warmup: 1 Warning; 0 Severe Errors.
   ************* EnergyPlus Sizing Error Summary. During Sizing: 4 Warning; 0 Severe Errors.
   ************* EnergyPlus Completed Successfully-- 209674 Warning; 0 Severe Errors; Elapsed Time=00hr 01min 50.72sec
