Program Version,EnergyPlus, Version 22.2.0-c249759bad, YMD=2023.09.01 18:56,
   ************* Beginning Zone Sizing Calculations
   ** Warning ** ProcessScheduleInput: Schedule:Constant="ALWAYS ON DISCRETE", Schedule Type Limits Name="ONOFF" not found -- will not be validated
   ** Warning ** Foundation:Kiva="KIVA FOUNDATION", no Interior Horizontal Insulation Material Name defined
   **   ~~~   ** Interior Horizontal Insulation Depth will not be used.
   ** Warning ** CheckUsedConstructions: There are 15 nominally unused constructions in input.
   **   ~~~   ** Each Unused construction is shown.
   ************* Construction=INTERIOR FLOOR
   ************* Construction=INTERIOR WINDOW
   ************* Construction=EXTERIOR DOOR
   ************* Construction=INTERIOR DOOR
   ************* Construction=GABLE CONSTRUCTION
   ************* Construction=CRAWL_FLOOR
   ************* Construction=INSULATED PIPE
   ************* Construction=PLAIN PIPE
   ************* Construction=TDD PIPE
   ************* Construction=TDD DOME
   ************* Construction=TDD DIFFUSER
   ************* Construction=CRAWL WALL
   ************* Construction=CEILING-FLOOR-LAYER
   ************* Construction=SLAB CONSTRUCTION W FULL R10 INSULATION
   ************* Construction=SLAB CONSTRUCTION W FULL R5 INSULATION
   ** Warning ** GetDXCoils: Coil:Heating:DX:SingleSpeed="DX_HEATING_COIL" curve values
   **   ~~~   ** ... Defrost Energy Input Ratio Function of Temperature Curve Name = DEFROSTEIR output is not equal to 1.0 (+ or - 10%) at rated conditions.
   **   ~~~   ** ... Curve output at rated conditions = 0.152
   ************* Beginning System Sizing Calculations
   ************* Beginning Plant Sizing Calculations
   ** Warning ** SizeDXCoil Coil:Cooling:DX:SingleSpeed DX_COOLING_COIL
   **   ~~~   ** ...Gross Rated Total Cooling Capacity [W] will be limited by the maximum rated volume flow per rated total capacity ratio.
   **   ~~~   ** ...DX coil volume flow rate ( m3/s ) = 0.351243
   **   ~~~   ** ...Requested capacity ( W ) = 5353.693
   **   ~~~   ** ...Requested flow/capacity ratio ( m3/s/W ) = 6.560E-005
   **   ~~~   ** ...Maximum flow/capacity ratio ( m3/s/W ) = 6.041E-005
   **   ~~~   ** ...Adjusted capacity ( W ) = 5814.331
   ** Warning ** Coil:WaterHeating:AirToWaterHeatPump:Wrapped "HEAT PUMP WATER HEATER EVAPORATOR": Rated air volume flow rate per watt of rated total water heating capacity is out of range
   **   ~~~   ** Min Rated Vol Flow Per Watt=[4.027E-005], Rated Vol Flow Per Watt=[1.510E-004], Max Rated Vol Flow Per Watt=[8.056E-005]. See Input-Output Reference Manual for valid range.
   ************* SizeFan: : Potential issue with equipment sizing for Fan:OnOff HEAT PUMP WATER HEATER FAN
   **   ~~~   ** User-Specified Maximum Flow Rate [m3/s] = 0.22653
   **   ~~~   ** differs from Design Size Maximum Flow Rate [m3/s] = 7.55250E-002
   **   ~~~   ** This may, or may not, indicate mismatched component sizes.
   **   ~~~   ** Verify that the value entered is intended and is consistent with other components.
   ** Warning ** Water heater = WATER HEATER TANK:  Recovery Efficiency and Energy Factor could not be calculated during the test for standard ratings
   **   ~~~   ** Setpoint was never recovered and/or heater never turned on
   ** Warning ** Check input. Pump nominal power or motor efficiency is set to 0, for pump=MAINS PRESSURE
   ** Warning ** Output:Meter: invalid Key Name="ELECTRIC_RANGE:INTERIOREQUIPMENT:ELECTRICITY" - not found.
   ** Warning ** Output:Meter: invalid Key Name="ELECTRIC_DRYER:INTERIOREQUIPMENT:ELECTRICITY" - not found.
   ** Warning ** Output:Meter: invalid Key Name="HEATRECOVERY:ELECTRICITY" - not found.
   ** Warning ** Output:Meter: invalid Key Name="HEATING:NATURALGAS" - not found.
   ** Warning ** Output:Meter: invalid Key Name="WATERSYSTEMS:NATURALGAS" - not found.
   ** Warning ** Output:Meter: invalid Key Name="PROPANE:FACILITY" - not found.
   ** Warning ** Output:Meter: invalid Key Name="HEATING:PROPANE" - not found.
   ************* Testing Individual Branch Integrity
   ************* All Branches passed integrity testing
   ************* Testing Individual Supply Air Path Integrity
   ************* All Supply Air Paths passed integrity testing
   ************* Testing Individual Return Air Path Integrity
   ************* All Return Air Paths passed integrity testing
   ************* No node connection errors were found.
   ************* Beginning Simulation
   ** Warning ** AirflowNetwork::Solver::validate_distribution: Heat pump water heater is simulated along with an AirflowNetwork but is not included in the AirflowNetwork.
   ** Warning ** CalcEquipmentFlowRates: "TOTAL HOT WATER LOAD" - Target water temperature is greater than the hot water temperature by (1.66 C)
   **   ~~~   **  Environment=EXTREME_WINTER, at Simulation time=12/15 03:45 - 04:00
   **   ~~~   ** ...target water temperature     = 53.33 C
   **   ~~~   ** ...hot water temperature        = 51.67 C
   **   ~~~   ** ...Target water temperature should be less than or equal to the hot water temperature. Verify temperature setpoints and schedules.
   ** Warning ** SimHVAC: Maximum iterations (20) exceeded for all HVAC loops, at ANNUAL, 03/03 17:03 - 17:06
   **   ~~~   ** The solution for one or more of the Air Loop HVAC systems did not appear to converge
   **   ~~~   ** Air System Named = CENTRAL SYSTEM did not converge for mass flow rate
   **   ~~~   ** Check values should be zero. Most Recent values listed first.
   **   ~~~   ** Demand-to-Supply interface mass flow rate check value iteration history trace: 8.916768E-002,8.916768E-002,8.916768E-002,8.916768E-002,8.916768E-002,8.916768E-002,8.916768E-002,8.916768E-002,8.916768E-002,8.916768E-002,
   **   ~~~   ** Supply-to-demand interface deck 1 mass flow rate check value iteration history trace: 8.916768E-002,8.916768E-002,8.916768E-002,8.916768E-002,8.916768E-002,8.916768E-002,8.916768E-002,8.916768E-002,8.916768E-002,8.916768E-002,
   **   ~~~   ** Air System Named = CENTRAL SYSTEM did not converge for energy
   **   ~~~   ** Check values should be zero. Most Recent values listed first.
   **   ~~~   ** Demand-to-Supply interface energy check value iteration history trace: 1766.755067,1766.755067,1766.755067,1766.755066,1766.755066,1766.755066,1766.755066,1766.755066,1766.755066,1766.755066,
   **   ~~~   ** Supply-to-demand interface deck 1 energy check value iteration history trace: 2576.697432,2576.697432,2576.697432,2576.697431,2576.697431,2576.697431,2576.697431,2576.697430,2576.697430,2576.697430,
   ** Warning ** SimHVAC: Maximum iterations (20) exceeded for all HVAC loops, at ANNUAL, 03/06 19:30 - 19:45
   **   ~~~   ** The solution for one or more of the Air Loop HVAC systems did not appear to converge
   **   ~~~   ** Air System Named = CENTRAL SYSTEM did not converge for mass flow rate
   **   ~~~   ** Check values should be zero. Most Recent values listed first.
   **   ~~~   ** Demand-to-Supply interface mass flow rate check value iteration history trace: 0.101538,0.101538,0.101538,0.101538,0.101538,0.101538,0.101538,0.101538,0.101538,0.101538,
   **   ~~~   ** Supply-to-demand interface deck 1 mass flow rate check value iteration history trace: 0.101538,0.101538,0.101538,0.101538,0.101538,0.101538,0.101538,0.101538,0.101538,0.101538,
   **   ~~~   ** Air System Named = CENTRAL SYSTEM did not converge for energy
   **   ~~~   ** Check values should be zero. Most Recent values listed first.
   **   ~~~   ** Demand-to-Supply interface energy check value iteration history trace: 2010.721436,2010.721436,2010.721436,2010.721435,2010.721435,2010.721435,2010.721435,2010.721435,2010.721435,2010.721435,
   **   ~~~   ** Supply-to-demand interface deck 1 energy check value iteration history trace: 2985.472756,2985.472756,2985.472756,2985.472756,2985.472755,2985.472755,2985.472755,2985.472755,2985.472755,2985.472754,
   ** Warning ** SimHVAC: Maximum iterations (20) exceeded for all HVAC loops, at ANNUAL, 03/09 21:25 - 21:30
   **   ~~~   ** The solution for one or more of the Air Loop HVAC systems did not appear to converge
   **   ~~~   ** Air System Named = CENTRAL SYSTEM did not converge for mass flow rate
   **   ~~~   ** Check values should be zero. Most Recent values listed first.
   **   ~~~   ** Demand-to-Supply interface mass flow rate check value iteration history trace: 8.975576E-002,8.975576E-002,8.975576E-002,8.975576E-002,8.975576E-002,8.975576E-002,8.975576E-002,8.975576E-002,8.975576E-002,8.975576E-002,
   **   ~~~   ** Supply-to-demand interface deck 1 mass flow rate check value iteration history trace: 8.975576E-002,8.975576E-002,8.975576E-002,8.975576E-002,8.975576E-002,8.975576E-002,8.975576E-002,8.975576E-002,8.975576E-002,8.975576E-002,
   **   ~~~   ** Air System Named = CENTRAL SYSTEM did not converge for energy
   **   ~~~   ** Check values should be zero. Most Recent values listed first.
   **   ~~~   ** Demand-to-Supply interface energy check value iteration history trace: 1774.148749,1774.148749,1774.148748,1774.148748,1774.148748,1774.148748,1774.148748,1774.148748,1774.148748,1774.148748,
   **   ~~~   ** Supply-to-demand interface deck 1 energy check value iteration history trace: 2590.343024,2590.343024,2590.343024,2590.343024,2590.343024,2590.343023,2590.343023,2590.343023,2590.343023,2590.343023,
   ** Warning ** SimHVAC: Maximum iterations (20) exceeded for all HVAC loops, at ANNUAL, 03/14 12:15 - 12:20
   **   ~~~   ** The solution for one or more of the Air Loop HVAC systems did not appear to converge
   **   ~~~   ** Air System Named = CENTRAL SYSTEM did not converge for mass flow rate
   **   ~~~   ** Check values should be zero. Most Recent values listed first.
   **   ~~~   ** Demand-to-Supply interface mass flow rate check value iteration history trace: 6.018897E-002,6.018897E-002,6.018897E-002,6.018897E-002,6.018897E-002,6.018897E-002,6.018897E-002,6.018897E-002,6.018897E-002,6.018897E-002,
   **   ~~~   ** Supply-to-demand interface deck 1 mass flow rate check value iteration history trace: 6.018897E-002,6.018897E-002,6.018897E-002,6.018897E-002,6.018897E-002,6.018897E-002,6.018897E-002,6.018897E-002,6.018897E-002,6.018897E-002,
   **   ~~~   ** Air System Named = CENTRAL SYSTEM did not converge for energy
   **   ~~~   ** Check values should be zero. Most Recent values listed first.
   **   ~~~   ** Demand-to-Supply interface energy check value iteration history trace: 1189.723912,1189.723912,1189.723912,1189.723912,1189.723912,1189.723912,1189.723912,1189.723912,1189.723912,1189.723912,
   **   ~~~   ** Supply-to-demand interface deck 1 energy check value iteration history trace: 2003.131338,2003.131338,2003.131338,2003.131338,2003.131338,2003.131337,2003.131337,2003.131337,2003.131337,2003.131337,
   ** Warning ** CalcDoe2DXCoil: Coil:Cooling:DX:SingleSpeed "DX_COOLING_COIL" - Air-cooled condenser inlet dry-bulb temperature below 0 C. Outdoor dry-bulb temperature = -0.30
   **   ~~~   **  ... Occurrence info = ANNUAL, 03/20 17:30 - 17:35
   **   ~~~   ** ... Operation at low ambient temperatures may require special performance curves.
   ** Warning ** SimHVAC: Maximum iterations (20) exceeded for all HVAC loops, at ANNUAL, 03/21 12:30 - 12:33
   **   ~~~   ** The solution for one or more of the Air Loop HVAC systems did not appear to converge
   **   ~~~   ** Air System Named = CENTRAL SYSTEM did not converge for mass flow rate
   **   ~~~   ** Check values should be zero. Most Recent values listed first.
   **   ~~~   ** Demand-to-Supply interface mass flow rate check value iteration history trace: 5.904120E-002,5.904120E-002,5.904120E-002,5.904120E-002,5.904120E-002,5.904120E-002,5.904120E-002,5.904120E-002,5.904120E-002,5.904120E-002,
   **   ~~~   ** Supply-to-demand interface deck 1 mass flow rate check value iteration history trace: 5.904120E-002,5.904120E-002,5.904120E-002,5.904120E-002,5.904120E-002,5.904120E-002,5.904120E-002,5.904120E-002,5.904120E-002,5.904120E-002,
   **   ~~~   ** Air System Named = CENTRAL SYSTEM did not converge for energy
   **   ~~~   ** Check values should be zero. Most Recent values listed first.
   **   ~~~   ** Demand-to-Supply interface energy check value iteration history trace: 1170.020607,1170.020607,1170.020607,1170.020607,1170.020607,1170.020607,1170.020607,1170.020607,1170.020607,1170.020607,
   **   ~~~   ** Supply-to-demand interface deck 1 energy check value iteration history trace: 2007.719967,2007.719967,2007.719967,2007.719967,2007.719967,2007.719967,2007.719967,2007.719967,2007.719967,2007.719967,
   ** Warning ** SimHVAC: Maximum iterations (20) exceeded for all HVAC loops, at ANNUAL, 04/02 13:30 - 13:45
   **   ~~~   ** The solution for one or more of the Air Loop HVAC systems did not appear to converge
   **   ~~~   ** Air System Named = CENTRAL SYSTEM did not converge for mass flow rate
   **   ~~~   ** Check values should be zero. Most Recent values listed first.
   **   ~~~   ** Demand-to-Supply interface mass flow rate check value iteration history trace: 6.271630E-002,6.271630E-002,6.271630E-002,6.271630E-002,6.271630E-002,6.271630E-002,6.271630E-002,6.271630E-002,6.271630E-002,6.271630E-002,
   **   ~~~   ** Supply-to-demand interface deck 1 mass flow rate check value iteration history trace: 6.271630E-002,6.271630E-002,6.271630E-002,6.271630E-002,6.271630E-002,6.271630E-002,6.271630E-002,6.271630E-002,6.271630E-002,6.271630E-002,
   **   ~~~   ** Air System Named = CENTRAL SYSTEM did not converge for energy
   **   ~~~   ** Check values should be zero. Most Recent values listed first.
   **   ~~~   ** Demand-to-Supply interface energy check value iteration history trace: 1242.775301,1242.775301,1242.775301,1242.775301,1242.775301,1242.775301,1242.775301,1242.775301,1242.775301,1242.775301,
   **   ~~~   ** Supply-to-demand interface deck 1 energy check value iteration history trace: 2177.302852,2177.302852,2177.302852,2177.302851,2177.302851,2177.302851,2177.302851,2177.302851,2177.302851,2177.302851,
   ** Warning ** SimHVAC: Maximum iterations (20) exceeded for all HVAC loops, at ANNUAL, 04/05 23:15 - 23:30
   **   ~~~   ** The solution for one or more of the Air Loop HVAC systems did not appear to converge
   **   ~~~   ** Air System Named = CENTRAL SYSTEM did not converge for mass flow rate
   **   ~~~   ** Check values should be zero. Most Recent values listed first.
   **   ~~~   ** Demand-to-Supply interface mass flow rate check value iteration history trace: 2.684920E-002,2.684920E-002,2.684920E-002,2.684920E-002,2.684920E-002,2.684920E-002,2.684920E-002,2.684920E-002,2.684920E-002,2.684920E-002,
   **   ~~~   ** Supply-to-demand interface deck 1 mass flow rate check value iteration history trace: 2.684920E-002,2.684920E-002,2.684920E-002,2.684920E-002,2.684920E-002,2.684920E-002,2.684920E-002,2.684920E-002,2.684920E-002,2.684920E-002,
   **   ~~~   ** Air System Named = CENTRAL SYSTEM did not converge for energy
   **   ~~~   ** Check values should be zero. Most Recent values listed first.
   **   ~~~   ** Demand-to-Supply interface energy check value iteration history trace: 501.256595,501.256595,501.256595,501.256595,501.256595,501.256595,501.256595,501.256595,501.256595,501.256595,
   **   ~~~   ** Supply-to-demand interface deck 1 energy check value iteration history trace: 764.359228,764.359228,764.359228,764.359228,764.359228,764.359228,764.359228,764.359228,764.359228,764.359228,
   ** Warning ** SimHVAC: Maximum iterations (20) exceeded for all HVAC loops, at ANNUAL, 04/09 13:45 - 13:49
   **   ~~~   ** The solution for one or more of the Air Loop HVAC systems did not appear to converge
   **   ~~~   ** Air System Named = CENTRAL SYSTEM did not converge for mass flow rate
   **   ~~~   ** Check values should be zero. Most Recent values listed first.
   **   ~~~   ** Demand-to-Supply interface mass flow rate check value iteration history trace: 6.705679E-002,6.705679E-002,6.705679E-002,6.705679E-002,6.705679E-002,6.705679E-002,6.705679E-002,6.705679E-002,6.705679E-002,6.705679E-002,
   **   ~~~   ** Supply-to-demand interface deck 1 mass flow rate check value iteration history trace: 6.705679E-002,6.705679E-002,6.705679E-002,6.705679E-002,6.705679E-002,6.705679E-002,6.705679E-002,6.705679E-002,6.705679E-002,6.705679E-002,
   **   ~~~   ** Air System Named = CENTRAL SYSTEM did not converge for energy
   **   ~~~   ** Check values should be zero. Most Recent values listed first.
   **   ~~~   ** Demand-to-Supply interface energy check value iteration history trace: 1328.867157,1328.867157,1328.867157,1328.867157,1328.867157,1328.867157,1328.867157,1328.867157,1328.867157,1328.867157,
   **   ~~~   ** Supply-to-demand interface deck 1 energy check value iteration history trace: 2286.492846,2286.492846,2286.492846,2286.492846,2286.492846,2286.492846,2286.492846,2286.492846,2286.492845,2286.492845,
   ** Warning ** SimHVAC: Maximum iterations (20) exceeded for all HVAC loops, at ANNUAL, 04/09 20:00 - 20:08
   **   ~~~   ** The solution for one or more of the Air Loop HVAC systems did not appear to converge
   **   ~~~   ** Air System Named = CENTRAL SYSTEM did not converge for mass flow rate
   **   ~~~   ** Check values should be zero. Most Recent values listed first.
   **   ~~~   ** Demand-to-Supply interface mass flow rate check value iteration history trace: 6.216597E-002,6.216597E-002,6.216597E-002,6.216597E-002,6.216597E-002,6.216597E-002,6.216597E-002,6.216597E-002,6.216597E-002,6.216597E-002,
   **   ~~~   ** Supply-to-demand interface deck 1 mass flow rate check value iteration history trace: 6.216597E-002,6.216597E-002,6.216597E-002,6.216597E-002,6.216597E-002,6.216597E-002,6.216597E-002,6.216597E-002,6.216597E-002,6.216597E-002,
   **   ~~~   ** Air System Named = CENTRAL SYSTEM did not converge for energy
   **   ~~~   ** Check values should be zero. Most Recent values listed first.
   **   ~~~   ** Demand-to-Supply interface energy check value iteration history trace: 1227.394123,1227.394123,1227.394123,1227.394123,1227.394123,1227.394123,1227.394123,1227.394123,1227.394123,1227.394123,
   **   ~~~   ** Supply-to-demand interface deck 1 energy check value iteration history trace: 2103.777560,2103.777560,2103.777560,2103.777560,2103.777560,2103.777559,2103.777559,2103.777559,2103.777559,2103.777559,
   ** Warning ** SimHVAC: Maximum iterations (20) exceeded for all HVAC loops, at ANNUAL, 04/26 10:23 - 10:26
   **   ~~~   ** The solution for one or more of the Air Loop HVAC systems did not appear to converge
   **   ~~~   ** Air System Named = CENTRAL SYSTEM did not converge for mass flow rate
   **   ~~~   ** Check values should be zero. Most Recent values listed first.
   **   ~~~   ** Demand-to-Supply interface mass flow rate check value iteration history trace: 5.932197E-002,5.932197E-002,5.932197E-002,5.932197E-002,5.932197E-002,5.932197E-002,5.932197E-002,5.932197E-002,5.932197E-002,5.932197E-002,
   **   ~~~   ** Supply-to-demand interface deck 1 mass flow rate check value iteration history trace: 5.932197E-002,5.932197E-002,5.932197E-002,5.932197E-002,5.932197E-002,5.932197E-002,5.932197E-002,5.932197E-002,5.932197E-002,5.932197E-002,
   **   ~~~   ** Air System Named = CENTRAL SYSTEM did not converge for energy
   **   ~~~   ** Check values should be zero. Most Recent values listed first.
   **   ~~~   ** Demand-to-Supply interface energy check value iteration history trace: 1168.747188,1168.747188,1168.747188,1168.747187,1168.747187,1168.747187,1168.747187,1168.747187,1168.747187,1168.747187,
   **   ~~~   ** Supply-to-demand interface deck 1 energy check value iteration history trace: 2008.626887,2008.626887,2008.626887,2008.626887,2008.626887,2008.626886,2008.626886,2008.626886,2008.626886,2008.626886,
   ** Warning ** SimHVAC: Maximum iterations (20) exceeded for all HVAC loops, at ANNUAL, 04/29 10:45 - 11:00
   **   ~~~   ** The solution for one or more of the Air Loop HVAC systems did not appear to converge
   **   ~~~   ** Air System Named = CENTRAL SYSTEM did not converge for mass flow rate
   **   ~~~   ** Check values should be zero. Most Recent values listed first.
   **   ~~~   ** Demand-to-Supply interface mass flow rate check value iteration history trace: 6.843257E-002,6.843257E-002,6.843257E-002,6.843257E-002,6.843257E-002,6.843257E-002,6.843257E-002,6.843257E-002,6.843257E-002,6.843257E-002,
   **   ~~~   ** Supply-to-demand interface deck 1 mass flow rate check value iteration history trace: 6.843257E-002,6.843257E-002,6.843257E-002,6.843257E-002,6.843257E-002,6.843257E-002,6.843257E-002,6.843257E-002,6.843257E-002,6.843257E-002,
   **   ~~~   ** Air System Named = CENTRAL SYSTEM did not converge for energy
   **   ~~~   ** Check values should be zero. Most Recent values listed first.
   **   ~~~   ** Demand-to-Supply interface energy check value iteration history trace: 1356.135848,1356.135848,1356.135848,1356.135848,1356.135848,1356.135848,1356.135848,1356.135847,1356.135847,1356.135847,
   **   ~~~   ** Supply-to-demand interface deck 1 energy check value iteration history trace: 2348.512653,2348.512653,2348.512653,2348.512653,2348.512653,2348.512653,2348.512653,2348.512653,2348.512653,2348.512652,
   ** Warning ** SimHVAC: Maximum iterations (20) exceeded for all HVAC loops, at ANNUAL, 04/29 10:49 - 10:52
   **   ~~~   ** The solution for one or more of the Air Loop HVAC systems did not appear to converge
   **   ~~~   ** Air System Named = CENTRAL SYSTEM did not converge for mass flow rate
   **   ~~~   ** Check values should be zero. Most Recent values listed first.
   **   ~~~   ** Demand-to-Supply interface mass flow rate check value iteration history trace: 6.815115E-002,6.815115E-002,6.815115E-002,6.815115E-002,6.815115E-002,6.815115E-002,6.815115E-002,6.815115E-002,6.815115E-002,6.815115E-002,
   **   ~~~   ** Supply-to-demand interface deck 1 mass flow rate check value iteration history trace: 6.815115E-002,6.815115E-002,6.815115E-002,6.815115E-002,6.815115E-002,6.815115E-002,6.815115E-002,6.815115E-002,6.815115E-002,6.815115E-002,
   **   ~~~   ** Air System Named = CENTRAL SYSTEM did not converge for energy
   **   ~~~   ** Check values should be zero. Most Recent values listed first.
   **   ~~~   ** Demand-to-Supply interface energy check value iteration history trace: 1350.616406,1350.616406,1350.616406,1350.616406,1350.616406,1350.616406,1350.616406,1350.616406,1350.616406,1350.616406,
   **   ~~~   ** Supply-to-demand interface deck 1 energy check value iteration history trace: 2338.934957,2338.934957,2338.934957,2338.934957,2338.934957,2338.934957,2338.934957,2338.934956,2338.934956,2338.934956,
   ** Warning ** SimHVAC: Maximum iterations (20) exceeded for all HVAC loops, at ANNUAL, 05/03 09:15 - 09:17
   **   ~~~   ** The solution for one or more of the Air Loop HVAC systems did not appear to converge
   **   ~~~   ** Air System Named = CENTRAL SYSTEM did not converge for mass flow rate
   **   ~~~   ** Check values should be zero. Most Recent values listed first.
   **   ~~~   ** Demand-to-Supply interface mass flow rate check value iteration history trace: 6.890361E-002,6.890361E-002,6.890361E-002,6.890361E-002,6.890361E-002,6.890361E-002,6.890361E-002,6.890361E-002,6.890361E-002,6.890361E-002,
   **   ~~~   ** Supply-to-demand interface deck 1 mass flow rate check value iteration history trace: 6.890361E-002,6.890361E-002,6.890361E-002,6.890361E-002,6.890361E-002,6.890361E-002,6.890361E-002,6.890361E-002,6.890361E-002,6.890361E-002,
   **   ~~~   ** Air System Named = CENTRAL SYSTEM did not converge for energy
   **   ~~~   ** Check values should be zero. Most Recent values listed first.
   **   ~~~   ** Demand-to-Supply interface energy check value iteration history trace: 1362.562470,1362.562470,1362.562470,1362.562470,1362.562470,1362.562470,1362.562470,1362.562470,1362.562470,1362.562469,
   **   ~~~   ** Supply-to-demand interface deck 1 energy check value iteration history trace: 2354.871100,2354.871100,2354.871100,2354.871100,2354.871099,2354.871099,2354.871099,2354.871099,2354.871099,2354.871099,
   ** Warning ** SimHVAC: Maximum iterations (20) exceeded for all HVAC loops, at ANNUAL, 05/04 07:30 - 07:45
   **   ~~~   ** The solution for one or more of the Air Loop HVAC systems did not appear to converge
   **   ~~~   ** Air System Named = CENTRAL SYSTEM did not converge for mass flow rate
   **   ~~~   ** Check values should be zero. Most Recent values listed first.
   **   ~~~   ** Demand-to-Supply interface mass flow rate check value iteration history trace: 6.359216E-002,6.359216E-002,6.359216E-002,6.359216E-002,6.359216E-002,6.359216E-002,6.359216E-002,6.359216E-002,6.359216E-002,6.359216E-002,
   **   ~~~   ** Supply-to-demand interface deck 1 mass flow rate check value iteration history trace: 6.359216E-002,6.359216E-002,6.359216E-002,6.359216E-002,6.359216E-002,6.359216E-002,6.359216E-002,6.359216E-002,6.359216E-002,6.359216E-002,
   **   ~~~   ** Air System Named = CENTRAL SYSTEM did not converge for energy
   **   ~~~   ** Check values should be zero. Most Recent values listed first.
   **   ~~~   ** Demand-to-Supply interface energy check value iteration history trace: 1259.834066,1259.834066,1259.834066,1259.834066,1259.834066,1259.834066,1259.834066,1259.834066,1259.834066,1259.834066,
   **   ~~~   ** Supply-to-demand interface deck 1 energy check value iteration history trace: 2278.522275,2278.522275,2278.522275,2278.522275,2278.522275,2278.522275,2278.522275,2278.522275,2278.522275,2278.522275,
   ************* Simulation Error Summary *************
   ** Warning ** The following Report Variables were requested but not generated -- check.rdd file
   **   ~~~   ** Either the IDF did not contain these elements, the variable name is misspelled,
   **   ~~~   ** or the requested variable is an advanced output which requires Output : Diagnostics, DisplayAdvancedReportVariables;
   ************* Key=*, VarName=BASEBOARD TOTAL HEATING ENERGY, Frequency=
   ************* Key=*, VarName=WATER HEATER NATURALGAS ENERGY, Frequency=
   ************* Key=*, VarName=COOLING COIL TOTAL HEATING ENERGY, Frequency=
   ************* There are 34 unused schedules in input.
   ************* There are 388 unused week schedules in input.
   ************* There are 396 unused day schedules in input.
   ************* Use Output:Diagnostics,DisplayUnusedSchedules; to see them.
   *************
   ************* ===== Recurring Error Summary =====
   ************* The following recurring error messages occurred.
   *************
   *************  ** Warning ** "TOTAL HOT WATER LOAD" - Target water temperature should be less than or equal to the hot water temperature error continues...
   *************  **   ~~~   **   This error occurred 53013 total times;
   *************  **   ~~~   **   during Warmup 0 times;
   *************  **   ~~~   **   during Sizing 0 times.
   *************  **   ~~~   **   Max=6.689022  Min=1.175386E-004
   *************
   *************  ** Warning ** CalcDoe2DXCoil: Coil:Cooling:DX:SingleSpeed="DX_COOLING_COIL" - Low condenser dry-bulb temperature error continues...
   *************  **   ~~~   **   This error occurred 2 total times;
   *************  **   ~~~   **   during Warmup 0 times;
   *************  **   ~~~   **   during Sizing 0 times.
   *************  **   ~~~   **   Max=-0.3 [C]  Min=-0.3 [C]
   *************
   *************  ** Warning ** SimHVAC: Exceeding Maximum iterations for all HVAC loops, during ANNUAL continues
   *************  **   ~~~   **   This error occurred 15 total times;
   *************  **   ~~~   **   during Warmup 0 times;
   *************  **   ~~~   **   during Sizing 0 times.
   *************
   *************
   ************* ===== Final Error Summary =====
   ************* The following error categories occurred.  Consider correcting or noting.
   ************* Nominally Unused Constructions
   ************* ..The nominally unused constructions warning is provided to alert you to potential conditions that can cause
   ************* ..extra time during simulation. Each construction is calculated by the algorithm indicated in the HeatBalanceAlgorithm
   ************* ..object. You may remove the constructions indicated (when you use the DisplayExtraWarnings option).
   *************
   ************* EnergyPlus Warmup Error Summary. During Warmup: 1 Warning; 0 Severe Errors.
   ************* EnergyPlus Sizing Error Summary. During Sizing: 4 Warning; 0 Severe Errors.
   ************* EnergyPlus Completed Successfully-- 53062 Warning; 0 Severe Errors; Elapsed Time=00hr 01min 27.56sec
