Program Version,EnergyPlus, Version 22.2.0-c249759bad, YMD=2023.08.31 13:04,
   ************* Beginning Zone Sizing Calculations
   ** Warning ** ProcessScheduleInput: Schedule:Constant="ALWAYS ON DISCRETE", Schedule Type Limits Name="ONOFF" not found -- will not be validated
   ** Warning ** Foundation:Kiva="KIVA FOUNDATION", no Interior Horizontal Insulation Material Name defined
   **   ~~~   ** Interior Horizontal Insulation Depth will not be used.
   ** Warning ** CheckUsedConstructions: There are 15 nominally unused constructions in input.
   **   ~~~   ** Each Unused construction is shown.
   ************* Construction=INTERIOR FLOOR
   ************* Construction=INTERIOR WINDOW
   ************* Construction=EXTERIOR DOOR
   ************* Construction=INTERIOR DOOR
   ************* Construction=GABLE CONSTRUCTION
   ************* Construction=CRAWL_FLOOR
   ************* Construction=INSULATED PIPE
   ************* Construction=PLAIN PIPE
   ************* Construction=TDD PIPE
   ************* Construction=TDD DOME
   ************* Construction=TDD DIFFUSER
   ************* Construction=CRAWL WALL
   ************* Construction=CEILING-FLOOR-LAYER
   ************* Construction=SLAB CONSTRUCTION W FULL R10 INSULATION
   ************* Construction=SLAB CONSTRUCTION W FULL R5 INSULATION
   ** Warning ** GetDXCoils: Coil:Heating:DX:SingleSpeed="DX_HEATING_COIL" curve values
   **   ~~~   ** ... Defrost Energy Input Ratio Function of Temperature Curve Name = DEFROSTEIR output is not equal to 1.0 (+ or - 10%) at rated conditions.
   **   ~~~   ** ... Curve output at rated conditions = 0.152
   ************* Beginning System Sizing Calculations
   ************* Beginning Plant Sizing Calculations
   ** Warning ** Coil:WaterHeating:AirToWaterHeatPump:Wrapped "HEAT PUMP WATER HEATER EVAPORATOR": Rated air volume flow rate per watt of rated total water heating capacity is out of range
   **   ~~~   ** Min Rated Vol Flow Per Watt=[4.027E-005], Rated Vol Flow Per Watt=[1.386E-004], Max Rated Vol Flow Per Watt=[8.056E-005]. See Input-Output Reference Manual for valid range.
   ** Warning ** Water heater = WATER HEATER TANK:  Recovery Efficiency and Energy Factor could not be calculated during the test for standard ratings
   **   ~~~   ** Setpoint was never recovered and/or heater never turned on
   ** Warning ** Check input. Pump nominal power or motor efficiency is set to 0, for pump=MAINS PRESSURE
   ** Warning ** AirflowNetwork::Solver::validate_distribution: Heat pump water heater is simulated along with an AirflowNetwork but is not included in the AirflowNetwork.
   ** Warning ** Output:Meter: invalid Key Name="ELECTRIC_RANGE:INTERIOREQUIPMENT:ELECTRICITY" - not found.
   ** Warning ** Output:Meter: invalid Key Name="ELECTRIC_DRYER:INTERIOREQUIPMENT:ELECTRICITY" - not found.
   ** Warning ** Output:Meter: invalid Key Name="HEATRECOVERY:ELECTRICITY" - not found.
   ** Warning ** Output:Meter: invalid Key Name="HEATING:NATURALGAS" - not found.
   ** Warning ** Output:Meter: invalid Key Name="WATERSYSTEMS:NATURALGAS" - not found.
   ** Warning ** Output:Meter: invalid Key Name="PROPANE:FACILITY" - not found.
   ** Warning ** Output:Meter: invalid Key Name="HEATING:PROPANE" - not found.
   ************* Testing Individual Branch Integrity
   ************* All Branches passed integrity testing
   ************* Testing Individual Supply Air Path Integrity
   ************* All Supply Air Paths passed integrity testing
   ************* Testing Individual Return Air Path Integrity
   ************* All Return Air Paths passed integrity testing
   ************* No node connection errors were found.
   ************* Beginning Simulation
   ** Warning ** CalcEquipmentFlowRates: "TOTAL HOT WATER LOAD" - Target water temperature is greater than the hot water temperature by (1.86 C)
   **   ~~~   **  Environment=EXTREME_WINTER, at Simulation time=01/20 07:00 - 07:15
   **   ~~~   ** ...target water temperature     = 53.33 C
   **   ~~~   ** ...hot water temperature        = 51.47 C
   **   ~~~   ** ...Target water temperature should be less than or equal to the hot water temperature. Verify temperature setpoints and schedules.
   ** Warning ** SimHVAC: Maximum iterations (20) exceeded for all HVAC loops, at EXTREME_WINTER, 01/21 22:00 - 22:15
   **   ~~~   ** The solution for one or more of the Air Loop HVAC systems did not appear to converge
   **   ~~~   ** Air System Named = CENTRAL SYSTEM did not converge for mass flow rate
   **   ~~~   ** Check values should be zero. Most Recent values listed first.
   **   ~~~   ** Demand-to-Supply interface mass flow rate check value iteration history trace: 9.218972E-002,9.218972E-002,9.218972E-002,9.218972E-002,9.218972E-002,9.218972E-002,9.218972E-002,9.218972E-002,9.218972E-002,9.218972E-002,
   **   ~~~   ** Supply-to-demand interface deck 1 mass flow rate check value iteration history trace: 9.218972E-002,9.218972E-002,9.218972E-002,9.218972E-002,9.218972E-002,9.218972E-002,9.218972E-002,9.218972E-002,9.218972E-002,9.218972E-002,
   **   ~~~   ** Air System Named = CENTRAL SYSTEM did not converge for energy
   **   ~~~   ** Check values should be zero. Most Recent values listed first.
   **   ~~~   ** Demand-to-Supply interface energy check value iteration history trace: 1825.979550,1825.979547,1825.979544,1825.979541,1825.979537,1825.979534,1825.979531,1825.979528,1825.979525,1825.979522,
   **   ~~~   ** Supply-to-demand interface deck 1 energy check value iteration history trace: 2733.099079,2733.099074,2733.099069,2733.099064,2733.099060,2733.099055,2733.099050,2733.099045,2733.099041,2733.099036,
   ** Warning ** SimHVAC: Maximum iterations (20) exceeded for all HVAC loops, at ANNUAL, 02/18 10:50 - 10:55
   **   ~~~   ** The solution for one or more of the Air Loop HVAC systems did not appear to converge
   **   ~~~   ** Air System Named = CENTRAL SYSTEM did not converge for mass flow rate
   **   ~~~   ** Check values should be zero. Most Recent values listed first.
   **   ~~~   ** Demand-to-Supply interface mass flow rate check value iteration history trace: 6.560474E-002,6.560474E-002,6.560474E-002,6.560474E-002,6.560474E-002,6.560474E-002,6.560474E-002,6.560474E-002,6.560474E-002,6.560474E-002,
   **   ~~~   ** Supply-to-demand interface deck 1 mass flow rate check value iteration history trace: 6.560474E-002,6.560474E-002,6.560474E-002,6.560474E-002,6.560474E-002,6.560474E-002,6.560474E-002,6.560474E-002,6.560474E-002,6.560474E-002,
   **   ~~~   ** Air System Named = CENTRAL SYSTEM did not converge for energy
   **   ~~~   ** Check values should be zero. Most Recent values listed first.
   **   ~~~   ** Demand-to-Supply interface energy check value iteration history trace: 1292.397917,1292.397915,1292.397914,1292.397912,1292.397910,1292.397908,1292.397907,1292.397905,1292.397903,1292.397902,
   **   ~~~   ** Supply-to-demand interface deck 1 energy check value iteration history trace: 2312.149136,2312.149133,2312.149130,2312.149127,2312.149124,2312.149121,2312.149118,2312.149115,2312.149112,2312.149109,
   ** Warning ** SimHVAC: Maximum iterations (20) exceeded for all HVAC loops, at ANNUAL, 03/21 08:45 - 08:48
   **   ~~~   ** The solution for one or more of the Air Loop HVAC systems did not appear to converge
   **   ~~~   ** Air System Named = CENTRAL SYSTEM did not converge for mass flow rate
   **   ~~~   ** Check values should be zero. Most Recent values listed first.
   **   ~~~   ** Demand-to-Supply interface mass flow rate check value iteration history trace: 8.500437E-002,8.500437E-002,8.500437E-002,8.500437E-002,8.500437E-002,8.500437E-002,8.500437E-002,8.500437E-002,8.500437E-002,8.500437E-002,
   **   ~~~   ** Supply-to-demand interface deck 1 mass flow rate check value iteration history trace: 8.500437E-002,8.500437E-002,8.500437E-002,8.500437E-002,8.500437E-002,8.500437E-002,8.500437E-002,8.500437E-002,8.500437E-002,8.500437E-002,
   **   ~~~   ** Air System Named = CENTRAL SYSTEM did not converge for energy
   **   ~~~   ** Check values should be zero. Most Recent values listed first.
   **   ~~~   ** Demand-to-Supply interface energy check value iteration history trace: 1684.470326,1684.470325,1684.470323,1684.470322,1684.470320,1684.470318,1684.470317,1684.470315,1684.470314,1684.470312,
   **   ~~~   ** Supply-to-demand interface deck 1 energy check value iteration history trace: 3022.671095,3022.671092,3022.671089,3022.671086,3022.671084,3022.671081,3022.671078,3022.671075,3022.671072,3022.671070,
   ** Warning ** SimHVAC: Maximum iterations (20) exceeded for all HVAC loops, at ANNUAL, 03/22 09:39 - 09:41
   **   ~~~   ** The solution for one or more of the Air Loop HVAC systems did not appear to converge
   **   ~~~   ** Air System Named = CENTRAL SYSTEM did not converge for mass flow rate
   **   ~~~   ** Check values should be zero. Most Recent values listed first.
   **   ~~~   ** Demand-to-Supply interface mass flow rate check value iteration history trace: 7.391109E-002,7.391109E-002,7.391109E-002,7.391109E-002,7.391109E-002,7.391109E-002,7.391109E-002,7.391109E-002,7.391109E-002,7.391109E-002,
   **   ~~~   ** Supply-to-demand interface deck 1 mass flow rate check value iteration history trace: 7.391109E-002,7.391109E-002,7.391109E-002,7.391109E-002,7.391109E-002,7.391109E-002,7.391109E-002,7.391109E-002,7.391109E-002,7.391109E-002,
   **   ~~~   ** Air System Named = CENTRAL SYSTEM did not converge for energy
   **   ~~~   ** Check values should be zero. Most Recent values listed first.
   **   ~~~   ** Demand-to-Supply interface energy check value iteration history trace: 1455.318326,1455.318325,1455.318324,1455.318324,1455.318323,1455.318322,1455.318322,1455.318321,1455.318320,1455.318319,
   **   ~~~   ** Supply-to-demand interface deck 1 energy check value iteration history trace: 2747.167785,2747.167784,2747.167782,2747.167781,2747.167780,2747.167779,2747.167777,2747.167776,2747.167775,2747.167773,
   ** Warning ** SimHVAC: Maximum iterations (20) exceeded for all HVAC loops, at ANNUAL, 03/30 09:30 - 09:45
   **   ~~~   ** The solution for one or more of the Air Loop HVAC systems did not appear to converge
   **   ~~~   ** Air System Named = CENTRAL SYSTEM did not converge for mass flow rate
   **   ~~~   ** Check values should be zero. Most Recent values listed first.
   **   ~~~   ** Demand-to-Supply interface mass flow rate check value iteration history trace: 0.105590,0.105590,0.105590,0.105590,0.105590,0.105590,0.105590,0.105590,0.105590,0.105590,
   **   ~~~   ** Supply-to-demand interface deck 1 mass flow rate check value iteration history trace: 0.105590,0.105590,0.105590,0.105590,0.105590,0.105590,0.105590,0.105590,0.105590,0.105590,
   **   ~~~   ** Air System Named = CENTRAL SYSTEM did not converge for energy
   **   ~~~   ** Check values should be zero. Most Recent values listed first.
   **   ~~~   ** Demand-to-Supply interface energy check value iteration history trace: 2092.370111,2092.370109,2092.370106,2092.370104,2092.370102,2092.370100,2092.370097,2092.370095,2092.370093,2092.370091,
   **   ~~~   ** Supply-to-demand interface deck 1 energy check value iteration history trace: 3374.820872,3374.820868,3374.820865,3374.820861,3374.820857,3374.820854,3374.820850,3374.820846,3374.820843,3374.820839,
   ** Warning ** SimHVAC: Maximum iterations (20) exceeded for all HVAC loops, at ANNUAL, 04/09 08:58 - 09:00
   **   ~~~   ** The solution for one or more of the Air Loop HVAC systems did not appear to converge
   **   ~~~   ** Air System Named = CENTRAL SYSTEM did not converge for mass flow rate
   **   ~~~   ** Check values should be zero. Most Recent values listed first.
   **   ~~~   ** Demand-to-Supply interface mass flow rate check value iteration history trace: 7.512811E-002,7.512811E-002,7.512811E-002,7.512811E-002,7.512811E-002,7.512811E-002,7.512811E-002,7.512811E-002,7.512811E-002,7.512811E-002,
   **   ~~~   ** Supply-to-demand interface deck 1 mass flow rate check value iteration history trace: 7.512811E-002,7.512811E-002,7.512811E-002,7.512811E-002,7.512811E-002,7.512811E-002,7.512811E-002,7.512811E-002,7.512811E-002,7.512811E-002,
   **   ~~~   ** Air System Named = CENTRAL SYSTEM did not converge for energy
   **   ~~~   ** Check values should be zero. Most Recent values listed first.
   **   ~~~   ** Demand-to-Supply interface energy check value iteration history trace: 1481.721138,1481.721137,1481.721136,1481.721135,1481.721134,1481.721133,1481.721132,1481.721131,1481.721130,1481.721129,
   **   ~~~   ** Supply-to-demand interface deck 1 energy check value iteration history trace: 2742.195242,2742.195240,2742.195238,2742.195236,2742.195234,2742.195232,2742.195231,2742.195229,2742.195227,2742.195225,
   ** Warning ** SimHVAC: Maximum iterations (20) exceeded for all HVAC loops, at ANNUAL, 04/17 09:30 - 09:45
   **   ~~~   ** The solution for one or more of the Air Loop HVAC systems did not appear to converge
   **   ~~~   ** Air System Named = CENTRAL SYSTEM did not converge for mass flow rate
   **   ~~~   ** Check values should be zero. Most Recent values listed first.
   **   ~~~   ** Demand-to-Supply interface mass flow rate check value iteration history trace: 7.349212E-002,7.349212E-002,7.349212E-002,7.349212E-002,7.349212E-002,7.349212E-002,7.349212E-002,7.349212E-002,7.349212E-002,7.349212E-002,
   **   ~~~   ** Supply-to-demand interface deck 1 mass flow rate check value iteration history trace: 7.349212E-002,7.349212E-002,7.349212E-002,7.349212E-002,7.349212E-002,7.349212E-002,7.349212E-002,7.349212E-002,7.349212E-002,7.349212E-002,
   **   ~~~   ** Air System Named = CENTRAL SYSTEM did not converge for energy
   **   ~~~   ** Check values should be zero. Most Recent values listed first.
   **   ~~~   ** Demand-to-Supply interface energy check value iteration history trace: 1452.714432,1452.714430,1452.714428,1452.714426,1452.714425,1452.714423,1452.714421,1452.714420,1452.714418,1452.714416,
   **   ~~~   ** Supply-to-demand interface deck 1 energy check value iteration history trace: 2722.532105,2722.532102,2722.532098,2722.532095,2722.532092,2722.532089,2722.532086,2722.532082,2722.532079,2722.532076,
   ** Warning ** SimHVAC: Maximum iterations (20) exceeded for all HVAC loops, at ANNUAL, 04/30 09:30 - 09:38
   **   ~~~   ** The solution for one or more of the Air Loop HVAC systems did not appear to converge
   **   ~~~   ** Air System Named = CENTRAL SYSTEM did not converge for mass flow rate
   **   ~~~   ** Check values should be zero. Most Recent values listed first.
   **   ~~~   ** Demand-to-Supply interface mass flow rate check value iteration history trace: 6.165435E-002,6.165435E-002,6.165435E-002,6.165435E-002,6.165435E-002,6.165435E-002,6.165435E-002,6.165435E-002,6.165435E-002,6.165435E-002,
   **   ~~~   ** Supply-to-demand interface deck 1 mass flow rate check value iteration history trace: 6.165435E-002,6.165435E-002,6.165435E-002,6.165435E-002,6.165435E-002,6.165435E-002,6.165435E-002,6.165435E-002,6.165435E-002,6.165435E-002,
   **   ~~~   ** Air System Named = CENTRAL SYSTEM did not converge for energy
   **   ~~~   ** Check values should be zero. Most Recent values listed first.
   **   ~~~   ** Demand-to-Supply interface energy check value iteration history trace: 1221.157413,1221.157412,1221.157411,1221.157410,1221.157409,1221.157408,1221.157407,1221.157406,1221.157405,1221.157404,
   **   ~~~   ** Supply-to-demand interface deck 1 energy check value iteration history trace: 2278.959535,2278.959533,2278.959531,2278.959529,2278.959527,2278.959525,2278.959523,2278.959522,2278.959520,2278.959518,
   ** Warning ** SimHVAC: Maximum iterations (20) exceeded for all HVAC loops, at ANNUAL, 05/12 11:00 - 11:08
   **   ~~~   ** The solution for one or more of the Air Loop HVAC systems did not appear to converge
   **   ~~~   ** Air System Named = CENTRAL SYSTEM did not converge for mass flow rate
   **   ~~~   ** Check values should be zero. Most Recent values listed first.
   **   ~~~   ** Demand-to-Supply interface mass flow rate check value iteration history trace: 6.502982E-002,6.502982E-002,6.502982E-002,6.502982E-002,6.502982E-002,6.502982E-002,6.502982E-002,6.502982E-002,6.502982E-002,6.502982E-002,
   **   ~~~   ** Supply-to-demand interface deck 1 mass flow rate check value iteration history trace: 6.502982E-002,6.502982E-002,6.502982E-002,6.502982E-002,6.502982E-002,6.502982E-002,6.502982E-002,6.502982E-002,6.502982E-002,6.502982E-002,
   **   ~~~   ** Air System Named = CENTRAL SYSTEM did not converge for energy
   **   ~~~   ** Check values should be zero. Most Recent values listed first.
   **   ~~~   ** Demand-to-Supply interface energy check value iteration history trace: 1288.356735,1288.356733,1288.356732,1288.356730,1288.356729,1288.356727,1288.356726,1288.356724,1288.356723,1288.356721,
   **   ~~~   ** Supply-to-demand interface deck 1 energy check value iteration history trace: 2377.948064,2377.948061,2377.948058,2377.948056,2377.948053,2377.948050,2377.948047,2377.948044,2377.948042,2377.948039,
   ** Warning ** SimHVAC: Maximum iterations (20) exceeded for all HVAC loops, at ANNUAL, 10/23 07:53 - 07:56
   **   ~~~   ** The solution for one or more of the Air Loop HVAC systems did not appear to converge
   **   ~~~   ** Air System Named = CENTRAL SYSTEM did not converge for mass flow rate
   **   ~~~   ** Check values should be zero. Most Recent values listed first.
   **   ~~~   ** Demand-to-Supply interface mass flow rate check value iteration history trace: 6.870695E-002,6.870695E-002,6.870695E-002,6.870695E-002,6.870695E-002,6.870695E-002,6.870695E-002,6.870695E-002,6.870695E-002,6.870695E-002,
   **   ~~~   ** Supply-to-demand interface deck 1 mass flow rate check value iteration history trace: 6.870695E-002,6.870695E-002,6.870695E-002,6.870695E-002,6.870695E-002,6.870695E-002,6.870695E-002,6.870695E-002,6.870695E-002,6.870695E-002,
   **   ~~~   ** Air System Named = CENTRAL SYSTEM did not converge for energy
   **   ~~~   ** Check values should be zero. Most Recent values listed first.
   **   ~~~   ** Demand-to-Supply interface energy check value iteration history trace: 1361.541362,1361.541360,1361.541359,1361.541358,1361.541357,1361.541356,1361.541354,1361.541353,1361.541352,1361.541351,
   **   ~~~   ** Supply-to-demand interface deck 1 energy check value iteration history trace: 2438.035662,2438.035660,2438.035658,2438.035656,2438.035654,2438.035652,2438.035650,2438.035648,2438.035645,2438.035643,
   ** Warning ** SimHVAC: Maximum iterations (20) exceeded for all HVAC loops, at ANNUAL, 11/05 11:00 - 11:08
   **   ~~~   ** The solution for one or more of the Air Loop HVAC systems did not appear to converge
   **   ~~~   ** Air System Named = CENTRAL SYSTEM did not converge for mass flow rate
   **   ~~~   ** Check values should be zero. Most Recent values listed first.
   **   ~~~   ** Demand-to-Supply interface mass flow rate check value iteration history trace: 8.167593E-002,8.167593E-002,8.167593E-002,8.167593E-002,8.167593E-002,8.167593E-002,8.167593E-002,8.167593E-002,8.167593E-002,8.167593E-002,
   **   ~~~   ** Supply-to-demand interface deck 1 mass flow rate check value iteration history trace: 8.167593E-002,8.167593E-002,8.167593E-002,8.167593E-002,8.167593E-002,8.167593E-002,8.167593E-002,8.167593E-002,8.167593E-002,8.167593E-002,
   **   ~~~   ** Air System Named = CENTRAL SYSTEM did not converge for energy
   **   ~~~   ** Check values should be zero. Most Recent values listed first.
   **   ~~~   ** Demand-to-Supply interface energy check value iteration history trace: 1613.531000,1613.530997,1613.530994,1613.530991,1613.530988,1613.530985,1613.530982,1613.530979,1613.530976,1613.530973,
   **   ~~~   ** Supply-to-demand interface deck 1 energy check value iteration history trace: 2658.344109,2658.344104,2658.344099,2658.344094,2658.344089,2658.344084,2658.344079,2658.344074,2658.344069,2658.344065,
   ** Warning ** SimHVAC: Maximum iterations (20) exceeded for all HVAC loops, at ANNUAL, 11/13 07:45 - 08:00
   **   ~~~   ** The solution for one or more of the Air Loop HVAC systems did not appear to converge
   **   ~~~   ** Air System Named = CENTRAL SYSTEM did not converge for mass flow rate
   **   ~~~   ** Check values should be zero. Most Recent values listed first.
   **   ~~~   ** Demand-to-Supply interface mass flow rate check value iteration history trace: 5.438408E-002,5.438408E-002,5.438408E-002,5.438408E-002,5.438408E-002,5.438408E-002,5.438408E-002,5.438408E-002,5.438408E-002,5.438408E-002,
   **   ~~~   ** Supply-to-demand interface deck 1 mass flow rate check value iteration history trace: 5.438408E-002,5.438408E-002,5.438408E-002,5.438408E-002,5.438408E-002,5.438408E-002,5.438408E-002,5.438408E-002,5.438408E-002,5.438408E-002,
   **   ~~~   ** Air System Named = CENTRAL SYSTEM did not converge for energy
   **   ~~~   ** Check values should be zero. Most Recent values listed first.
   **   ~~~   ** Demand-to-Supply interface energy check value iteration history trace: 1077.312523,1077.312522,1077.312521,1077.312520,1077.312519,1077.312518,1077.312518,1077.312517,1077.312516,1077.312515,
   **   ~~~   ** Supply-to-demand interface deck 1 energy check value iteration history trace: 2059.716153,2059.716151,2059.716149,2059.716148,2059.716146,2059.716144,2059.716143,2059.716141,2059.716139,2059.716138,
   ** Warning ** SimHVAC: Maximum iterations (20) exceeded for all HVAC loops, at ANNUAL, 11/17 09:15 - 09:30
   **   ~~~   ** The solution for one or more of the Air Loop HVAC systems did not appear to converge
   **   ~~~   ** Air System Named = CENTRAL SYSTEM did not converge for mass flow rate
   **   ~~~   ** Check values should be zero. Most Recent values listed first.
   **   ~~~   ** Demand-to-Supply interface mass flow rate check value iteration history trace: 8.654295E-002,8.654295E-002,8.654295E-002,8.654295E-002,8.654295E-002,8.654295E-002,8.654295E-002,8.654295E-002,8.654295E-002,8.654295E-002,
   **   ~~~   ** Supply-to-demand interface deck 1 mass flow rate check value iteration history trace: 8.654295E-002,8.654295E-002,8.654295E-002,8.654295E-002,8.654295E-002,8.654295E-002,8.654295E-002,8.654295E-002,8.654295E-002,8.654295E-002,
   **   ~~~   ** Air System Named = CENTRAL SYSTEM did not converge for energy
   **   ~~~   ** Check values should be zero. Most Recent values listed first.
   **   ~~~   ** Demand-to-Supply interface energy check value iteration history trace: 1714.852736,1714.852734,1714.852732,1714.852731,1714.852729,1714.852728,1714.852726,1714.852724,1714.852723,1714.852721,
   **   ~~~   ** Supply-to-demand interface deck 1 energy check value iteration history trace: 3020.320356,3020.320353,3020.320350,3020.320347,3020.320344,3020.320342,3020.320339,3020.320336,3020.320333,3020.320330,
   ** Warning ** SimHVAC: Maximum iterations (20) exceeded for all HVAC loops, at ANNUAL, 11/19 21:45 - 21:52
   **   ~~~   ** The solution for one or more of the Air Loop HVAC systems did not appear to converge
   **   ~~~   ** Air System Named = CENTRAL SYSTEM did not converge for mass flow rate
   **   ~~~   ** Check values should be zero. Most Recent values listed first.
   **   ~~~   ** Demand-to-Supply interface mass flow rate check value iteration history trace: 7.481226E-002,7.481226E-002,7.481226E-002,7.481226E-002,7.481226E-002,7.481226E-002,7.481226E-002,7.481226E-002,7.481226E-002,7.481226E-002,
   **   ~~~   ** Supply-to-demand interface deck 1 mass flow rate check value iteration history trace: 7.481226E-002,7.481226E-002,7.481226E-002,7.481226E-002,7.481226E-002,7.481226E-002,7.481226E-002,7.481226E-002,7.481226E-002,7.481226E-002,
   **   ~~~   ** Air System Named = CENTRAL SYSTEM did not converge for energy
   **   ~~~   ** Check values should be zero. Most Recent values listed first.
   **   ~~~   ** Demand-to-Supply interface energy check value iteration history trace: 1481.443595,1481.443594,1481.443593,1481.443592,1481.443591,1481.443590,1481.443589,1481.443588,1481.443587,1481.443586,
   **   ~~~   ** Supply-to-demand interface deck 1 energy check value iteration history trace: 2610.169124,2610.169122,2610.169120,2610.169118,2610.169116,2610.169115,2610.169113,2610.169111,2610.169109,2610.169107,
   ************* Simulation Error Summary *************
   ** Warning ** The following Report Variables were requested but not generated -- check.rdd file
   **   ~~~   ** Either the IDF did not contain these elements, the variable name is misspelled,
   **   ~~~   ** or the requested variable is an advanced output which requires Output : Diagnostics, DisplayAdvancedReportVariables;
   ************* Key=*, VarName=BASEBOARD TOTAL HEATING ENERGY, Frequency=
   ************* Key=*, VarName=WATER HEATER NATURALGAS ENERGY, Frequency=
   ************* Key=*, VarName=COOLING COIL TOTAL HEATING ENERGY, Frequency=
   ************* There are 34 unused schedules in input.
   ************* There are 388 unused week schedules in input.
   ************* There are 396 unused day schedules in input.
   ************* Use Output:Diagnostics,DisplayUnusedSchedules; to see them.
   *************
   ************* ===== Recurring Error Summary =====
   ************* The following recurring error messages occurred.
   *************
   *************  ** Warning ** "TOTAL HOT WATER LOAD" - Target water temperature should be less than or equal to the hot water temperature error continues...
   *************  **   ~~~   **   This error occurred 130019 total times;
   *************  **   ~~~   **   during Warmup 0 times;
   *************  **   ~~~   **   during Sizing 0 times.
   *************  **   ~~~   **   Max=23.828308  Min=4.123707E-004
   *************
   *************  ** Warning ** SimHVAC: Exceeding Maximum iterations for all HVAC loops, during ANNUAL continues
   *************  **   ~~~   **   This error occurred 3 total times;
   *************  **   ~~~   **   during Warmup 0 times;
   *************  **   ~~~   **   during Sizing 0 times.
   *************
   *************
   ************* ===== Final Error Summary =====
   ************* The following error categories occurred.  Consider correcting or noting.
   ************* Nominally Unused Constructions
   ************* ..The nominally unused constructions warning is provided to alert you to potential conditions that can cause
   ************* ..extra time during simulation. Each construction is calculated by the algorithm indicated in the HeatBalanceAlgorithm
   ************* ..object. You may remove the constructions indicated (when you use the DisplayExtraWarnings option).
   *************
   ************* EnergyPlus Warmup Error Summary. During Warmup: 0 Warning; 0 Severe Errors.
   ************* EnergyPlus Sizing Error Summary. During Sizing: 4 Warning; 0 Severe Errors.
   ************* EnergyPlus Completed Successfully-- 130053 Warning; 0 Severe Errors; Elapsed Time=00hr 05min 14.37sec
