Program Version,EnergyPlus, Version 22.2.0-c249759bad, YMD=2023.09.01 14:36,
   ************* Beginning Zone Sizing Calculations
   ** Warning ** ProcessScheduleInput: Schedule:Constant="ALWAYS ON DISCRETE", Schedule Type Limits Name="ONOFF" not found -- will not be validated
   ** Warning ** Foundation:Kiva="KIVA FOUNDATION", no Interior Horizontal Insulation Material Name defined
   **   ~~~   ** Interior Horizontal Insulation Depth will not be used.
   ** Warning ** CheckUsedConstructions: There are 15 nominally unused constructions in input.
   **   ~~~   ** Each Unused construction is shown.
   ************* Construction=INTERIOR FLOOR
   ************* Construction=INTERIOR WINDOW
   ************* Construction=EXTERIOR DOOR
   ************* Construction=INTERIOR DOOR
   ************* Construction=GABLE CONSTRUCTION
   ************* Construction=CRAWL_FLOOR
   ************* Construction=INSULATED PIPE
   ************* Construction=PLAIN PIPE
   ************* Construction=TDD PIPE
   ************* Construction=TDD DOME
   ************* Construction=TDD DIFFUSER
   ************* Construction=CRAWL WALL
   ************* Construction=CEILING-FLOOR-LAYER
   ************* Construction=SLAB CONSTRUCTION W FULL R10 INSULATION
   ************* Construction=SLAB CONSTRUCTION W FULL R5 INSULATION
   ** Warning ** GetDXCoils: Coil:Heating:DX:SingleSpeed="DX_HEATING_COIL" curve values
   **   ~~~   ** ... Defrost Energy Input Ratio Function of Temperature Curve Name = DEFROSTEIR output is not equal to 1.0 (+ or - 10%) at rated conditions.
   **   ~~~   ** ... Curve output at rated conditions = 0.152
   ************* Beginning System Sizing Calculations
   ************* Beginning Plant Sizing Calculations
   ** Warning ** SizeDXCoil Coil:Cooling:DX:SingleSpeed DX_COOLING_COIL
   **   ~~~   ** ...Gross Rated Total Cooling Capacity [W] will be limited by the maximum rated volume flow per rated total capacity ratio.
   **   ~~~   ** ...DX coil volume flow rate ( m3/s ) = 0.547721
   **   ~~~   ** ...Requested capacity ( W ) = 7785.537
   **   ~~~   ** ...Requested flow/capacity ratio ( m3/s/W ) = 7.035E-005
   **   ~~~   ** ...Maximum flow/capacity ratio ( m3/s/W ) = 6.041E-005
   **   ~~~   ** ...Adjusted capacity ( W ) = 9066.732
   ** Warning ** SizeDXCoil Coil:Heating:DX:SingleSpeed DX_HEATING_COIL
   **   ~~~   ** ...Gross Rated Heating Capacity [W] will be limited by the maximum rated volume flow per rated total capacity ratio.
   **   ~~~   ** ...DX coil volume flow rate ( m3/s ) = 0.547721
   **   ~~~   ** ...Requested capacity ( W ) = 9066.732
   **   ~~~   ** ...Requested flow/capacity ratio ( m3/s/W ) = 6.041E-005
   **   ~~~   ** ...Maximum flow/capacity ratio ( m3/s/W ) = 6.041E-005
   **   ~~~   ** ...Adjusted capacity ( W ) = 9066.732
   ** Warning ** Coil:WaterHeating:AirToWaterHeatPump:Wrapped "HEAT PUMP WATER HEATER EVAPORATOR": Rated air volume flow rate per watt of rated total water heating capacity is out of range
   **   ~~~   ** Min Rated Vol Flow Per Watt=[4.027E-005], Rated Vol Flow Per Watt=[1.386E-004], Max Rated Vol Flow Per Watt=[8.056E-005]. See Input-Output Reference Manual for valid range.
   ** Warning ** Water heater = WATER HEATER TANK:  Recovery Efficiency and Energy Factor could not be calculated during the test for standard ratings
   **   ~~~   ** Setpoint was never recovered and/or heater never turned on
   ** Warning ** Check input. Pump nominal power or motor efficiency is set to 0, for pump=MAINS PRESSURE
   ** Warning ** Output:Meter: invalid Key Name="ELECTRIC_RANGE:INTERIOREQUIPMENT:ELECTRICITY" - not found.
   ** Warning ** Output:Meter: invalid Key Name="ELECTRIC_DRYER:INTERIOREQUIPMENT:ELECTRICITY" - not found.
   ** Warning ** Output:Meter: invalid Key Name="HEATRECOVERY:ELECTRICITY" - not found.
   ** Warning ** Output:Meter: invalid Key Name="HEATING:NATURALGAS" - not found.
   ** Warning ** Output:Meter: invalid Key Name="WATERSYSTEMS:NATURALGAS" - not found.
   ** Warning ** Output:Meter: invalid Key Name="PROPANE:FACILITY" - not found.
   ** Warning ** Output:Meter: invalid Key Name="HEATING:PROPANE" - not found.
   ************* Testing Individual Branch Integrity
   ************* All Branches passed integrity testing
   ************* Testing Individual Supply Air Path Integrity
   ************* All Supply Air Paths passed integrity testing
   ************* Testing Individual Return Air Path Integrity
   ************* All Return Air Paths passed integrity testing
   ************* No node connection errors were found.
   ************* Beginning Simulation
   ** Warning ** AirflowNetwork::Solver::validate_distribution: Heat pump water heater is simulated along with an AirflowNetwork but is not included in the AirflowNetwork.
   ** Warning ** CalcEquipmentFlowRates: "TOTAL HOT WATER LOAD" - Target water temperature is greater than the hot water temperature by (1.69 C)
   **   ~~~   **  Environment=EXTREME_WINTER, at Simulation time=12/22 06:00 - 06:15
   **   ~~~   ** ...target water temperature     = 53.33 C
   **   ~~~   ** ...hot water temperature        = 51.65 C
   **   ~~~   ** ...Target water temperature should be less than or equal to the hot water temperature. Verify temperature setpoints and schedules.
   ** Warning ** SimHVAC: Maximum iterations (20) exceeded for all HVAC loops, at EXTREME_WINTER, 12/28 22:15 - 22:30
   **   ~~~   ** The solution for one or more of the Air Loop HVAC systems did not appear to converge
   **   ~~~   ** Air System Named = CENTRAL SYSTEM did not converge for mass flow rate
   **   ~~~   ** Check values should be zero. Most Recent values listed first.
   **   ~~~   ** Demand-to-Supply interface mass flow rate check value iteration history trace: 3.063888E-002,3.063888E-002,3.063888E-002,3.063888E-002,3.063888E-002,3.063888E-002,3.063888E-002,3.063888E-002,3.063888E-002,3.063888E-002,
   **   ~~~   ** Supply-to-demand interface deck 1 mass flow rate check value iteration history trace: 3.063888E-002,3.063888E-002,3.063888E-002,3.063888E-002,3.063888E-002,3.063888E-002,3.063888E-002,3.063888E-002,3.063888E-002,3.063888E-002,
   **   ~~~   ** Air System Named = CENTRAL SYSTEM did not converge for energy
   **   ~~~   ** Check values should be zero. Most Recent values listed first.
   **   ~~~   ** Demand-to-Supply interface energy check value iteration history trace: 569.955419,569.955419,569.955419,569.955419,569.955419,569.955419,569.955419,569.955419,569.955419,569.955419,
   **   ~~~   ** Supply-to-demand interface deck 1 energy check value iteration history trace: 892.394462,892.394462,892.394462,892.394462,892.394462,892.394462,892.394462,892.394462,892.394462,892.394462,
   ** Warning ** SimHVAC: Maximum iterations (20) exceeded for all HVAC loops, at ANNUAL, 01/19 19:00 - 19:15
   **   ~~~   ** The solution for one or more of the Air Loop HVAC systems did not appear to converge
   **   ~~~   ** Air System Named = CENTRAL SYSTEM did not converge for mass flow rate
   **   ~~~   ** Check values should be zero. Most Recent values listed first.
   **   ~~~   ** Demand-to-Supply interface mass flow rate check value iteration history trace: 7.889158E-002,7.889158E-002,7.889158E-002,7.889158E-002,7.889158E-002,7.889158E-002,7.889158E-002,7.889158E-002,7.889158E-002,7.889158E-002,
   **   ~~~   ** Supply-to-demand interface deck 1 mass flow rate check value iteration history trace: 7.889158E-002,7.889158E-002,7.889158E-002,7.889158E-002,7.889158E-002,7.889158E-002,7.889158E-002,7.889158E-002,7.889158E-002,7.889158E-002,
   **   ~~~   ** Air System Named = CENTRAL SYSTEM did not converge for energy
   **   ~~~   ** Check values should be zero. Most Recent values listed first.
   **   ~~~   ** Demand-to-Supply interface energy check value iteration history trace: 1558.772139,1558.772139,1558.772139,1558.772139,1558.772139,1558.772139,1558.772139,1558.772139,1558.772139,1558.772139,
   **   ~~~   ** Supply-to-demand interface deck 1 energy check value iteration history trace: 2731.525464,2731.525464,2731.525464,2731.525464,2731.525464,2731.525463,2731.525463,2731.525463,2731.525463,2731.525463,
   ** Warning ** SimHVAC: Maximum iterations (20) exceeded for all HVAC loops, at ANNUAL, 02/11 09:45 - 10:00
   **   ~~~   ** The solution for one or more of the Air Loop HVAC systems did not appear to converge
   **   ~~~   ** Air System Named = CENTRAL SYSTEM did not converge for mass flow rate
   **   ~~~   ** Check values should be zero. Most Recent values listed first.
   **   ~~~   ** Demand-to-Supply interface mass flow rate check value iteration history trace: 5.930745E-002,5.930745E-002,5.930745E-002,5.930745E-002,5.930745E-002,5.930745E-002,5.930745E-002,5.930745E-002,5.930745E-002,5.930745E-002,
   **   ~~~   ** Supply-to-demand interface deck 1 mass flow rate check value iteration history trace: 5.930745E-002,5.930745E-002,5.930745E-002,5.930745E-002,5.930745E-002,5.930745E-002,5.930745E-002,5.930745E-002,5.930745E-002,5.930745E-002,
   **   ~~~   ** Air System Named = CENTRAL SYSTEM did not converge for energy
   **   ~~~   ** Check values should be zero. Most Recent values listed first.
   **   ~~~   ** Demand-to-Supply interface energy check value iteration history trace: 1163.581135,1163.581135,1163.581135,1163.581135,1163.581135,1163.581135,1163.581135,1163.581135,1163.581135,1163.581135,
   **   ~~~   ** Supply-to-demand interface deck 1 energy check value iteration history trace: 2285.249910,2285.249909,2285.249909,2285.249909,2285.249909,2285.249909,2285.249909,2285.249909,2285.249909,2285.249909,
   ** Warning ** Temperature out of range [-100. to 200.] (PsyPsatFnTemp)
   **   ~~~   **  Routine=PsyTwbFnTdbWPb, Environment=ANNUAL, at Simulation time=03/05 07:15 - 07:22
   **   ~~~   **  Input Temperature=-154.34
   ** Warning ** SimHVAC: Maximum iterations (20) exceeded for all HVAC loops, at ANNUAL, 03/05 10:12 - 10:13
   **   ~~~   ** The solution for one or more of the Air Loop HVAC systems did not appear to converge
   **   ~~~   ** Air System Named = CENTRAL SYSTEM did not converge for mass flow rate
   **   ~~~   ** Check values should be zero. Most Recent values listed first.
   **   ~~~   ** Demand-to-Supply interface mass flow rate check value iteration history trace: 6.480687E-002,6.480687E-002,6.480687E-002,6.480687E-002,6.480687E-002,6.480687E-002,6.480687E-002,6.480687E-002,6.480687E-002,6.480687E-002,
   **   ~~~   ** Supply-to-demand interface deck 1 mass flow rate check value iteration history trace: 6.480687E-002,6.480687E-002,6.480687E-002,6.480687E-002,6.480687E-002,6.480687E-002,6.480687E-002,6.480687E-002,6.480687E-002,6.480687E-002,
   **   ~~~   ** Air System Named = CENTRAL SYSTEM did not converge for energy
   **   ~~~   ** Check values should be zero. Most Recent values listed first.
   **   ~~~   ** Demand-to-Supply interface energy check value iteration history trace: 1277.452613,1277.452613,1277.452613,1277.452613,1277.452613,1277.452613,1277.452613,1277.452613,1277.452613,1277.452613,
   **   ~~~   ** Supply-to-demand interface deck 1 energy check value iteration history trace: 2461.711118,2461.711118,2461.711118,2461.711118,2461.711118,2461.711118,2461.711118,2461.711118,2461.711118,2461.711118,
   ** Warning ** SimHVAC: Maximum iterations (20) exceeded for all HVAC loops, at ANNUAL, 03/13 08:06 - 08:09
   **   ~~~   ** The solution for one or more of the Air Loop HVAC systems did not appear to converge
   **   ~~~   ** Air System Named = CENTRAL SYSTEM did not converge for mass flow rate
   **   ~~~   ** Check values should be zero. Most Recent values listed first.
   **   ~~~   ** Demand-to-Supply interface mass flow rate check value iteration history trace: 5.534556E-002,5.534556E-002,5.534556E-002,5.534556E-002,5.534556E-002,5.534556E-002,5.534556E-002,5.534556E-002,5.534556E-002,5.534556E-002,
   **   ~~~   ** Supply-to-demand interface deck 1 mass flow rate check value iteration history trace: 5.534556E-002,5.534556E-002,5.534556E-002,5.534556E-002,5.534556E-002,5.534556E-002,5.534556E-002,5.534556E-002,5.534556E-002,5.534556E-002,
   **   ~~~   ** Air System Named = CENTRAL SYSTEM did not converge for energy
   **   ~~~   ** Check values should be zero. Most Recent values listed first.
   **   ~~~   ** Demand-to-Supply interface energy check value iteration history trace: 1094.216708,1094.216708,1094.216708,1094.216707,1094.216707,1094.216707,1094.216707,1094.216707,1094.216707,1094.216707,
   **   ~~~   ** Supply-to-demand interface deck 1 energy check value iteration history trace: 2097.271072,2097.271072,2097.271072,2097.271072,2097.271072,2097.271072,2097.271072,2097.271072,2097.271072,2097.271072,
   ** Warning ** SimHVAC: Maximum iterations (20) exceeded for all HVAC loops, at ANNUAL, 03/15 08:02 - 08:05
   **   ~~~   ** The solution for one or more of the Air Loop HVAC systems did not appear to converge
   **   ~~~   ** Air System Named = CENTRAL SYSTEM did not converge for mass flow rate
   **   ~~~   ** Check values should be zero. Most Recent values listed first.
   **   ~~~   ** Demand-to-Supply interface mass flow rate check value iteration history trace: 5.645303E-002,5.645303E-002,5.645303E-002,5.645303E-002,5.645303E-002,5.645303E-002,5.645303E-002,5.645303E-002,5.645303E-002,5.645303E-002,
   **   ~~~   ** Supply-to-demand interface deck 1 mass flow rate check value iteration history trace: 5.645303E-002,5.645303E-002,5.645303E-002,5.645303E-002,5.645303E-002,5.645303E-002,5.645303E-002,5.645303E-002,5.645303E-002,5.645303E-002,
   **   ~~~   ** Air System Named = CENTRAL SYSTEM did not converge for energy
   **   ~~~   ** Check values should be zero. Most Recent values listed first.
   **   ~~~   ** Demand-to-Supply interface energy check value iteration history trace: 1112.432792,1112.432792,1112.432792,1112.432792,1112.432792,1112.432792,1112.432792,1112.432792,1112.432792,1112.432792,
   **   ~~~   ** Supply-to-demand interface deck 1 energy check value iteration history trace: 2162.615922,2162.615922,2162.615922,2162.615922,2162.615922,2162.615922,2162.615922,2162.615922,2162.615922,2162.615922,
   ** Warning ** SimHVAC: Maximum iterations (20) exceeded for all HVAC loops, at ANNUAL, 03/18 09:17 - 09:20
   **   ~~~   ** The solution for one or more of the Air Loop HVAC systems did not appear to converge
   **   ~~~   ** Air System Named = CENTRAL SYSTEM did not converge for mass flow rate
   **   ~~~   ** Check values should be zero. Most Recent values listed first.
   **   ~~~   ** Demand-to-Supply interface mass flow rate check value iteration history trace: 6.388594E-002,6.388594E-002,6.388594E-002,6.388594E-002,6.388594E-002,6.388594E-002,6.388594E-002,6.388594E-002,6.388594E-002,6.388594E-002,
   **   ~~~   ** Supply-to-demand interface deck 1 mass flow rate check value iteration history trace: 6.388594E-002,6.388594E-002,6.388594E-002,6.388594E-002,6.388594E-002,6.388594E-002,6.388594E-002,6.388594E-002,6.388594E-002,6.388594E-002,
   **   ~~~   ** Air System Named = CENTRAL SYSTEM did not converge for energy
   **   ~~~   ** Check values should be zero. Most Recent values listed first.
   **   ~~~   ** Demand-to-Supply interface energy check value iteration history trace: 1256.210622,1256.210622,1256.210622,1256.210622,1256.210622,1256.210622,1256.210622,1256.210622,1256.210622,1256.210622,
   **   ~~~   ** Supply-to-demand interface deck 1 energy check value iteration history trace: 2496.895669,2496.895669,2496.895669,2496.895669,2496.895669,2496.895668,2496.895668,2496.895668,2496.895668,2496.895668,
   ** Warning ** SimHVAC: Maximum iterations (20) exceeded for all HVAC loops, at ANNUAL, 04/26 21:25 - 21:30
   **   ~~~   ** The solution for one or more of the Air Loop HVAC systems did not appear to converge
   **   ~~~   ** Air System Named = CENTRAL SYSTEM did not converge for mass flow rate
   **   ~~~   ** Check values should be zero. Most Recent values listed first.
   **   ~~~   ** Demand-to-Supply interface mass flow rate check value iteration history trace: 0.141954,0.141954,0.141954,0.141954,0.141954,0.141954,0.141954,0.141954,0.141954,0.141954,
   **   ~~~   ** Supply-to-demand interface deck 1 mass flow rate check value iteration history trace: 0.141954,0.141954,0.141954,0.141954,0.141954,0.141954,0.141954,0.141954,0.141954,0.141954,
   **   ~~~   ** Air System Named = CENTRAL SYSTEM did not converge for energy
   **   ~~~   ** Check values should be zero. Most Recent values listed first.
   **   ~~~   ** Demand-to-Supply interface energy check value iteration history trace: 3380.867869,3380.867869,3380.867869,3380.867869,3380.867870,3380.867870,3380.867870,3380.867870,3380.867870,3380.867870,
   **   ~~~   ** Supply-to-demand interface deck 1 energy check value iteration history trace: 1016.848995,1016.848995,1016.848995,1016.848995,1016.848995,1016.848995,1016.848996,1016.848996,1016.848996,1016.848996,
   ** Warning ** SimHVAC: Maximum iterations (20) exceeded for all HVAC loops, at ANNUAL, 04/29 09:06 - 09:08
   **   ~~~   ** The solution for one or more of the Air Loop HVAC systems did not appear to converge
   **   ~~~   ** Air System Named = CENTRAL SYSTEM did not converge for mass flow rate
   **   ~~~   ** Check values should be zero. Most Recent values listed first.
   **   ~~~   ** Demand-to-Supply interface mass flow rate check value iteration history trace: 4.620500E-002,4.620500E-002,4.620500E-002,4.620500E-002,4.620500E-002,4.620500E-002,4.620500E-002,4.620500E-002,4.620500E-002,4.620500E-002,
   **   ~~~   ** Supply-to-demand interface deck 1 mass flow rate check value iteration history trace: 4.620500E-002,4.620500E-002,4.620500E-002,4.620500E-002,4.620500E-002,4.620500E-002,4.620500E-002,4.620500E-002,4.620500E-002,4.620500E-002,
   **   ~~~   ** Air System Named = CENTRAL SYSTEM did not converge for energy
   **   ~~~   ** Check values should be zero. Most Recent values listed first.
   **   ~~~   ** Demand-to-Supply interface energy check value iteration history trace: 1086.008268,1086.008268,1086.008268,1086.008268,1086.008269,1086.008269,1086.008269,1086.008269,1086.008269,1086.008269,
   **   ~~~   ** Supply-to-demand interface deck 1 energy check value iteration history trace: 363.604545,363.604545,363.604545,363.604545,363.604545,363.604545,363.604545,363.604545,363.604546,363.604546,
   ** Warning ** SimHVAC: Maximum iterations (20) exceeded for all HVAC loops, at ANNUAL, 10/31 07:23 - 07:30
   **   ~~~   ** The solution for one or more of the Air Loop HVAC systems did not appear to converge
   **   ~~~   ** Air System Named = CENTRAL SYSTEM did not converge for mass flow rate
   **   ~~~   ** Check values should be zero. Most Recent values listed first.
   **   ~~~   ** Demand-to-Supply interface mass flow rate check value iteration history trace: 6.111592E-002,6.111592E-002,6.111592E-002,6.111592E-002,6.111592E-002,6.111592E-002,6.111592E-002,6.111592E-002,6.111592E-002,6.111592E-002,
   **   ~~~   ** Supply-to-demand interface deck 1 mass flow rate check value iteration history trace: 6.111592E-002,6.111592E-002,6.111592E-002,6.111592E-002,6.111592E-002,6.111592E-002,6.111592E-002,6.111592E-002,6.111592E-002,6.111592E-002,
   **   ~~~   ** Air System Named = CENTRAL SYSTEM did not converge for energy
   **   ~~~   ** Check values should be zero. Most Recent values listed first.
   **   ~~~   ** Demand-to-Supply interface energy check value iteration history trace: 1199.038563,1199.038563,1199.038563,1199.038563,1199.038563,1199.038563,1199.038563,1199.038563,1199.038563,1199.038563,
   **   ~~~   ** Supply-to-demand interface deck 1 energy check value iteration history trace: 2240.516643,2240.516643,2240.516643,2240.516643,2240.516643,2240.516643,2240.516643,2240.516643,2240.516643,2240.516643,
   ** Warning ** SimHVAC: Maximum iterations (20) exceeded for all HVAC loops, at ANNUAL, 11/19 07:56 - 08:00
   **   ~~~   ** The solution for one or more of the Air Loop HVAC systems did not appear to converge
   **   ~~~   ** Air System Named = CENTRAL SYSTEM did not converge for mass flow rate
   **   ~~~   ** Check values should be zero. Most Recent values listed first.
   **   ~~~   ** Demand-to-Supply interface mass flow rate check value iteration history trace: 6.136330E-002,6.136330E-002,6.136330E-002,6.136330E-002,6.136330E-002,6.136330E-002,6.136330E-002,6.136330E-002,6.136330E-002,6.136330E-002,
   **   ~~~   ** Supply-to-demand interface deck 1 mass flow rate check value iteration history trace: 6.136330E-002,6.136330E-002,6.136330E-002,6.136330E-002,6.136330E-002,6.136330E-002,6.136330E-002,6.136330E-002,6.136330E-002,6.136330E-002,
   **   ~~~   ** Air System Named = CENTRAL SYSTEM did not converge for energy
   **   ~~~   ** Check values should be zero. Most Recent values listed first.
   **   ~~~   ** Demand-to-Supply interface energy check value iteration history trace: 1218.065250,1218.065250,1218.065250,1218.065250,1218.065250,1218.065250,1218.065250,1218.065250,1218.065250,1218.065250,
   **   ~~~   ** Supply-to-demand interface deck 1 energy check value iteration history trace: 2294.210857,2294.210857,2294.210857,2294.210857,2294.210857,2294.210857,2294.210857,2294.210857,2294.210857,2294.210857,
   ** Warning ** SimHVAC: Maximum iterations (20) exceeded for all HVAC loops, at ANNUAL, 12/03 12:00 - 12:08
   **   ~~~   ** The solution for one or more of the Air Loop HVAC systems did not appear to converge
   **   ~~~   ** Air System Named = CENTRAL SYSTEM did not converge for mass flow rate
   **   ~~~   ** Check values should be zero. Most Recent values listed first.
   **   ~~~   ** Demand-to-Supply interface mass flow rate check value iteration history trace: 4.998759E-002,4.998759E-002,4.998759E-002,4.998759E-002,4.998759E-002,4.998759E-002,4.998759E-002,4.998759E-002,4.998759E-002,4.998759E-002,
   **   ~~~   ** Supply-to-demand interface deck 1 mass flow rate check value iteration history trace: 4.998759E-002,4.998759E-002,4.998759E-002,4.998759E-002,4.998759E-002,4.998759E-002,4.998759E-002,4.998759E-002,4.998759E-002,4.998759E-002,
   **   ~~~   ** Air System Named = CENTRAL SYSTEM did not converge for energy
   **   ~~~   ** Check values should be zero. Most Recent values listed first.
   **   ~~~   ** Demand-to-Supply interface energy check value iteration history trace: 983.652824,983.652824,983.652824,983.652824,983.652823,983.652823,983.652823,983.652823,983.652823,983.652823,
   **   ~~~   ** Supply-to-demand interface deck 1 energy check value iteration history trace: 1802.167420,1802.167419,1802.167419,1802.167419,1802.167418,1802.167418,1802.167418,1802.167417,1802.167417,1802.167417,
   **   ~~~   ** Node named ZONE INLET NODE shows oscillating temperatures across iterations with a repeated value of 35.878507
   **   ~~~   ** Node named ZONE INLET NODE temperature [C] iteration history trace (most recent first): 35.878507,35.878507,35.878507,35.878506,35.878506,35.878506,35.878505,35.878505,35.878505,35.878505,
   ** Warning ** SimHVAC: Maximum iterations (20) exceeded for all HVAC loops, at ANNUAL, 12/16 10:09 - 10:12
   **   ~~~   ** The solution for one or more of the Air Loop HVAC systems did not appear to converge
   **   ~~~   ** Air System Named = CENTRAL SYSTEM did not converge for mass flow rate
   **   ~~~   ** Check values should be zero. Most Recent values listed first.
   **   ~~~   ** Demand-to-Supply interface mass flow rate check value iteration history trace: 5.701164E-002,5.701164E-002,5.701164E-002,5.701164E-002,5.701164E-002,5.701164E-002,5.701164E-002,5.701164E-002,5.701164E-002,5.701164E-002,
   **   ~~~   ** Supply-to-demand interface deck 1 mass flow rate check value iteration history trace: 5.701164E-002,5.701164E-002,5.701164E-002,5.701164E-002,5.701164E-002,5.701164E-002,5.701164E-002,5.701164E-002,5.701164E-002,5.701164E-002,
   **   ~~~   ** Air System Named = CENTRAL SYSTEM did not converge for energy
   **   ~~~   ** Check values should be zero. Most Recent values listed first.
   **   ~~~   ** Demand-to-Supply interface energy check value iteration history trace: 1125.834260,1125.834260,1125.834260,1125.834260,1125.834260,1125.834260,1125.834260,1125.834260,1125.834260,1125.834260,
   **   ~~~   ** Supply-to-demand interface deck 1 energy check value iteration history trace: 2246.241669,2246.241669,2246.241669,2246.241669,2246.241669,2246.241669,2246.241669,2246.241669,2246.241669,2246.241669,
   ** Warning ** SimHVAC: Maximum iterations (20) exceeded for all HVAC loops, at ANNUAL, 12/17 11:15 - 11:22
   **   ~~~   ** The solution for one or more of the Air Loop HVAC systems did not appear to converge
   **   ~~~   ** Air System Named = CENTRAL SYSTEM did not converge for mass flow rate
   **   ~~~   ** Check values should be zero. Most Recent values listed first.
   **   ~~~   ** Demand-to-Supply interface mass flow rate check value iteration history trace: 5.701493E-002,5.701493E-002,5.701493E-002,5.701493E-002,5.701493E-002,5.701493E-002,5.701493E-002,5.701493E-002,5.701493E-002,5.701493E-002,
   **   ~~~   ** Supply-to-demand interface deck 1 mass flow rate check value iteration history trace: 5.701493E-002,5.701493E-002,5.701493E-002,5.701493E-002,5.701493E-002,5.701493E-002,5.701493E-002,5.701493E-002,5.701493E-002,5.701493E-002,
   **   ~~~   ** Air System Named = CENTRAL SYSTEM did not converge for energy
   **   ~~~   ** Check values should be zero. Most Recent values listed first.
   **   ~~~   ** Demand-to-Supply interface energy check value iteration history trace: 1128.761598,1128.761598,1128.761598,1128.761598,1128.761598,1128.761598,1128.761597,1128.761597,1128.761597,1128.761597,
   **   ~~~   ** Supply-to-demand interface deck 1 energy check value iteration history trace: 2172.535286,2172.535285,2172.535285,2172.535284,2172.535284,2172.535284,2172.535283,2172.535283,2172.535283,2172.535282,
   **   ~~~   ** Node named ZONE INLET NODE shows oscillating temperatures across iterations with a repeated value of 37.920991
   **   ~~~   ** Node named ZONE INLET NODE temperature [C] iteration history trace (most recent first): 37.920991,37.920991,37.920991,37.920990,37.920990,37.920990,37.920989,37.920989,37.920989,37.920988,
   ************* Simulation Error Summary *************
   ** Warning ** The following Report Variables were requested but not generated -- check.rdd file
   **   ~~~   ** Either the IDF did not contain these elements, the variable name is misspelled,
   **   ~~~   ** or the requested variable is an advanced output which requires Output : Diagnostics, DisplayAdvancedReportVariables;
   ************* Key=*, VarName=BASEBOARD TOTAL HEATING ENERGY, Frequency=
   ************* Key=*, VarName=WATER HEATER NATURALGAS ENERGY, Frequency=
   ************* Key=*, VarName=COOLING COIL TOTAL HEATING ENERGY, Frequency=
   ************* There are 34 unused schedules in input.
   ************* There are 388 unused week schedules in input.
   ************* There are 396 unused day schedules in input.
   ************* Use Output:Diagnostics,DisplayUnusedSchedules; to see them.
   *************
   ************* ===== Recurring Error Summary =====
   ************* The following recurring error messages occurred.
   *************
   *************  ** Warning ** "TOTAL HOT WATER LOAD" - Target water temperature should be less than or equal to the hot water temperature error continues...
   *************  **   ~~~   **   This error occurred 134951 total times;
   *************  **   ~~~   **   during Warmup 0 times;
   *************  **   ~~~   **   during Sizing 0 times.
   *************  **   ~~~   **   Max=8.504065  Min=8.811741E-005
   *************
   *************  ** Warning ** Temperature out of range [-100. to 200.] (PsyPsatFnTemp)
   *************  **   ~~~   **   This error occurred 2 total times;
   *************  **   ~~~   **   during Warmup 0 times;
   *************  **   ~~~   **   during Sizing 0 times.
   *************  **   ~~~   **   Max=-154.344551 C  Min=-166.66993 C
   *************
   *************  ** Warning ** SimHVAC: Exceeding Maximum iterations for all HVAC loops, during ANNUAL continues
   *************  **   ~~~   **   This error occurred 1 total times;
   *************  **   ~~~   **   during Warmup 0 times;
   *************  **   ~~~   **   during Sizing 0 times.
   *************
   *************
   ************* ===== Final Error Summary =====
   ************* The following error categories occurred.  Consider correcting or noting.
   ************* Nominally Unused Constructions
   ************* ..The nominally unused constructions warning is provided to alert you to potential conditions that can cause
   ************* ..extra time during simulation. Each construction is calculated by the algorithm indicated in the HeatBalanceAlgorithm
   ************* ..object. You may remove the constructions indicated (when you use the DisplayExtraWarnings option).
   *************
   ************* EnergyPlus Warmup Error Summary. During Warmup: 1 Warning; 0 Severe Errors.
   ************* EnergyPlus Sizing Error Summary. During Sizing: 4 Warning; 0 Severe Errors.
   ************* EnergyPlus Completed Successfully-- 134987 Warning; 0 Severe Errors; Elapsed Time=00hr 06min 35.61sec
