Program Version,EnergyPlus, Version 22.2.0-c249759bad, YMD=2023.09.01 19:20,
   ************* Beginning Zone Sizing Calculations
   ** Warning ** ProcessScheduleInput: Schedule:Constant="ALWAYS ON DISCRETE", Schedule Type Limits Name="ONOFF" not found -- will not be validated
   ** Warning ** Foundation:Kiva="KIVA FOUNDATION", no Interior Horizontal Insulation Material Name defined
   **   ~~~   ** Interior Horizontal Insulation Depth will not be used.
   ** Warning ** CheckUsedConstructions: There are 15 nominally unused constructions in input.
   **   ~~~   ** Each Unused construction is shown.
   ************* Construction=INTERIOR FLOOR
   ************* Construction=INTERIOR WINDOW
   ************* Construction=EXTERIOR DOOR
   ************* Construction=INTERIOR DOOR
   ************* Construction=GABLE CONSTRUCTION
   ************* Construction=CRAWL_FLOOR
   ************* Construction=INSULATED PIPE
   ************* Construction=PLAIN PIPE
   ************* Construction=TDD PIPE
   ************* Construction=TDD DOME
   ************* Construction=TDD DIFFUSER
   ************* Construction=CRAWL WALL
   ************* Construction=CEILING-FLOOR-LAYER
   ************* Construction=SLAB CONSTRUCTION W FULL R10 INSULATION
   ************* Construction=SLAB CONSTRUCTION W FULL R5 INSULATION
   ** Warning ** GetDXCoils: Coil:Heating:DX:SingleSpeed="DX_HEATING_COIL" curve values
   **   ~~~   ** ... Defrost Energy Input Ratio Function of Temperature Curve Name = DEFROSTEIR output is not equal to 1.0 (+ or - 10%) at rated conditions.
   **   ~~~   ** ... Curve output at rated conditions = 0.152
   ************* Beginning System Sizing Calculations
   ************* Beginning Plant Sizing Calculations
   ** Warning ** SizeDXCoil Coil:Cooling:DX:SingleSpeed DX_COOLING_COIL
   **   ~~~   ** ...Gross Rated Total Cooling Capacity [W] will be limited by the maximum rated volume flow per rated total capacity ratio.
   **   ~~~   ** ...DX coil volume flow rate ( m3/s ) = 0.570490
   **   ~~~   ** ...Requested capacity ( W ) = 8052.063
   **   ~~~   ** ...Requested flow/capacity ratio ( m3/s/W ) = 7.085E-005
   **   ~~~   ** ...Maximum flow/capacity ratio ( m3/s/W ) = 6.041E-005
   **   ~~~   ** ...Adjusted capacity ( W ) = 9443.640
   ** Warning ** SizeDXCoil Coil:Heating:DX:SingleSpeed DX_HEATING_COIL
   **   ~~~   ** ...Gross Rated Heating Capacity [W] will be limited by the maximum rated volume flow per rated total capacity ratio.
   **   ~~~   ** ...DX coil volume flow rate ( m3/s ) = 0.570490
   **   ~~~   ** ...Requested capacity ( W ) = 9443.640
   **   ~~~   ** ...Requested flow/capacity ratio ( m3/s/W ) = 6.041E-005
   **   ~~~   ** ...Maximum flow/capacity ratio ( m3/s/W ) = 6.041E-005
   **   ~~~   ** ...Adjusted capacity ( W ) = 9443.640
   ** Warning ** Coil:WaterHeating:AirToWaterHeatPump:Wrapped "HEAT PUMP WATER HEATER EVAPORATOR": Rated air volume flow rate per watt of rated total water heating capacity is out of range
   **   ~~~   ** Min Rated Vol Flow Per Watt=[4.027E-005], Rated Vol Flow Per Watt=[1.510E-004], Max Rated Vol Flow Per Watt=[8.056E-005]. See Input-Output Reference Manual for valid range.
   ************* SizeFan: : Potential issue with equipment sizing for Fan:OnOff HEAT PUMP WATER HEATER FAN
   **   ~~~   ** User-Specified Maximum Flow Rate [m3/s] = 0.22653
   **   ~~~   ** differs from Design Size Maximum Flow Rate [m3/s] = 7.55250E-002
   **   ~~~   ** This may, or may not, indicate mismatched component sizes.
   **   ~~~   ** Verify that the value entered is intended and is consistent with other components.
   ** Warning ** Water heater = WATER HEATER TANK:  Recovery Efficiency and Energy Factor could not be calculated during the test for standard ratings
   **   ~~~   ** Setpoint was never recovered and/or heater never turned on
   ** Warning ** Check input. Pump nominal power or motor efficiency is set to 0, for pump=MAINS PRESSURE
   ** Warning ** Output:Meter: invalid Key Name="ELECTRIC_RANGE:INTERIOREQUIPMENT:ELECTRICITY" - not found.
   ** Warning ** Output:Meter: invalid Key Name="ELECTRIC_DRYER:INTERIOREQUIPMENT:ELECTRICITY" - not found.
   ** Warning ** Output:Meter: invalid Key Name="HEATRECOVERY:ELECTRICITY" - not found.
   ** Warning ** Output:Meter: invalid Key Name="HEATING:NATURALGAS" - not found.
   ** Warning ** Output:Meter: invalid Key Name="WATERSYSTEMS:NATURALGAS" - not found.
   ** Warning ** Output:Meter: invalid Key Name="PROPANE:FACILITY" - not found.
   ** Warning ** Output:Meter: invalid Key Name="HEATING:PROPANE" - not found.
   ************* Testing Individual Branch Integrity
   ************* All Branches passed integrity testing
   ************* Testing Individual Supply Air Path Integrity
   ************* All Supply Air Paths passed integrity testing
   ************* Testing Individual Return Air Path Integrity
   ************* All Return Air Paths passed integrity testing
   ************* No node connection errors were found.
   ************* Beginning Simulation
   ** Warning ** AirflowNetwork::Solver::validate_distribution: Heat pump water heater is simulated along with an AirflowNetwork but is not included in the AirflowNetwork.
   ** Severe  ** CheckWarmupConvergence: Loads Initialization, Zone="LIVING" did not converge after 25 warmup days.
   **   ~~~   ** See Warmup Convergence Information in .eio file for details.
   **   ~~~   ** ...Environment(SizingPeriod)="EXTREME_WINTER"
   **   ~~~   ** ..Max Temp Comparison = 1.75E-002 vs Temperature Convergence Tolerance=5.00E-002 - Pass Convergence
   **   ~~~   ** ..Min Temp Comparison = 1.71E-003 vs Temperature Convergence Tolerance=5.00E-002 - Pass Convergence
   **   ~~~   ** ..Max Heat Load Comparison = 6.0747E-002 vs Loads Convergence Tolerance=5.00E-002 - Fail Convergence
   **   ~~~   ** ..Max Cool Load Comparison = 8.8343E-002 vs Loads Convergence Tolerance=5.00E-002 - Fail Convergence
   ** Severe  ** CheckWarmupConvergence: Loads Initialization, Zone="ATTIC" did not converge after 25 warmup days.
   **   ~~~   ** ...Environment(SizingPeriod)="EXTREME_WINTER"
   **   ~~~   ** ..Max Temp Comparison = 4.90E-002 vs Temperature Convergence Tolerance=5.00E-002 - Pass Convergence
   **   ~~~   ** ..Min Temp Comparison = 0.11 vs Temperature Convergence Tolerance=5.00E-002 - Fail Convergence
   **   ~~~   ** ..Max Heat Load Comparison = 0.0000 vs Loads Convergence Tolerance=5.00E-002 - Pass Convergence
   **   ~~~   ** ..Max Cool Load Comparison = 0.0000 vs Loads Convergence Tolerance=5.00E-002 - Pass Convergence
   ** Warning ** CalcEquipmentFlowRates: "TOTAL HOT WATER LOAD" - Target water temperature is greater than the hot water temperature by (1.18 C)
   **   ~~~   **  Environment=EXTREME_WINTER, at Simulation time=12/22 06:45 - 07:00
   **   ~~~   ** ...target water temperature     = 53.33 C
   **   ~~~   ** ...hot water temperature        = 52.15 C
   **   ~~~   ** ...Target water temperature should be less than or equal to the hot water temperature. Verify temperature setpoints and schedules.
   ** Warning ** SimHVAC: Maximum iterations (20) exceeded for all HVAC loops, at EXTREME_WINTER, 01/03 11:21 - 11:24
   **   ~~~   ** The solution for one or more of the Air Loop HVAC systems did not appear to converge
   **   ~~~   ** Air System Named = CENTRAL SYSTEM did not converge for mass flow rate
   **   ~~~   ** Check values should be zero. Most Recent values listed first.
   **   ~~~   ** Demand-to-Supply interface mass flow rate check value iteration history trace: 6.586109E-002,6.586109E-002,6.586109E-002,6.586109E-002,6.586109E-002,6.586109E-002,6.586109E-002,6.586109E-002,6.586109E-002,6.586109E-002,
   **   ~~~   ** Supply-to-demand interface deck 1 mass flow rate check value iteration history trace: 6.586109E-002,6.586109E-002,6.586109E-002,6.586109E-002,6.586109E-002,6.586109E-002,6.586109E-002,6.586109E-002,6.586109E-002,6.586109E-002,
   **   ~~~   ** Air System Named = CENTRAL SYSTEM did not converge for energy
   **   ~~~   ** Check values should be zero. Most Recent values listed first.
   **   ~~~   ** Demand-to-Supply interface energy check value iteration history trace: 1302.472870,1302.472870,1302.472870,1302.472869,1302.472869,1302.472869,1302.472869,1302.472869,1302.472869,1302.472869,
   **   ~~~   ** Supply-to-demand interface deck 1 energy check value iteration history trace: 2302.341170,2302.341170,2302.341170,2302.341169,2302.341169,2302.341169,2302.341169,2302.341169,2302.341169,2302.341169,
   ** Warning ** SimHVAC: Maximum iterations (20) exceeded for all HVAC loops, at ANNUAL, 01/01 18:26 - 18:30
   **   ~~~   ** The solution for one or more of the Air Loop HVAC systems did not appear to converge
   **   ~~~   ** Air System Named = CENTRAL SYSTEM did not converge for mass flow rate
   **   ~~~   ** Check values should be zero. Most Recent values listed first.
   **   ~~~   ** Demand-to-Supply interface mass flow rate check value iteration history trace: 7.254381E-002,7.254381E-002,7.254381E-002,7.254381E-002,7.254381E-002,7.254381E-002,7.254381E-002,7.254381E-002,7.254381E-002,7.254381E-002,
   **   ~~~   ** Supply-to-demand interface deck 1 mass flow rate check value iteration history trace: 7.254381E-002,7.254381E-002,7.254381E-002,7.254381E-002,7.254381E-002,7.254381E-002,7.254381E-002,7.254381E-002,7.254381E-002,7.254381E-002,
   **   ~~~   ** Air System Named = CENTRAL SYSTEM did not converge for energy
   **   ~~~   ** Check values should be zero. Most Recent values listed first.
   **   ~~~   ** Demand-to-Supply interface energy check value iteration history trace: 1434.746694,1434.746694,1434.746694,1434.746694,1434.746693,1434.746693,1434.746693,1434.746693,1434.746693,1434.746693,
   **   ~~~   ** Supply-to-demand interface deck 1 energy check value iteration history trace: 2217.969788,2217.969788,2217.969788,2217.969788,2217.969788,2217.969787,2217.969787,2217.969787,2217.969787,2217.969787,
   ** Warning ** SimHVAC: Maximum iterations (20) exceeded for all HVAC loops, at ANNUAL, 01/08 09:45 - 09:49
   **   ~~~   ** The solution for one or more of the Air Loop HVAC systems did not appear to converge
   **   ~~~   ** Air System Named = CENTRAL SYSTEM did not converge for mass flow rate
   **   ~~~   ** Check values should be zero. Most Recent values listed first.
   **   ~~~   ** Demand-to-Supply interface mass flow rate check value iteration history trace: 5.861221E-002,5.861221E-002,5.861221E-002,5.861221E-002,5.861221E-002,5.861221E-002,5.861221E-002,5.861221E-002,5.861221E-002,5.861221E-002,
   **   ~~~   ** Supply-to-demand interface deck 1 mass flow rate check value iteration history trace: 5.861221E-002,5.861221E-002,5.861221E-002,5.861221E-002,5.861221E-002,5.861221E-002,5.861221E-002,5.861221E-002,5.861221E-002,5.861221E-002,
   **   ~~~   ** Air System Named = CENTRAL SYSTEM did not converge for energy
   **   ~~~   ** Check values should be zero. Most Recent values listed first.
   **   ~~~   ** Demand-to-Supply interface energy check value iteration history trace: 1161.495589,1161.495589,1161.495589,1161.495589,1161.495589,1161.495589,1161.495589,1161.495589,1161.495589,1161.495589,
   **   ~~~   ** Supply-to-demand interface deck 1 energy check value iteration history trace: 2072.949245,2072.949245,2072.949245,2072.949245,2072.949245,2072.949245,2072.949245,2072.949244,2072.949244,2072.949244,
   ** Warning ** SimHVAC: Maximum iterations (20) exceeded for all HVAC loops, at ANNUAL, 01/12 10:18 - 10:21
   **   ~~~   ** The solution for one or more of the Air Loop HVAC systems did not appear to converge
   **   ~~~   ** Air System Named = CENTRAL SYSTEM did not converge for mass flow rate
   **   ~~~   ** Check values should be zero. Most Recent values listed first.
   **   ~~~   ** Demand-to-Supply interface mass flow rate check value iteration history trace: 7.007912E-002,7.007912E-002,7.007912E-002,7.007912E-002,7.007912E-002,7.007912E-002,7.007912E-002,7.007912E-002,7.007912E-002,7.007912E-002,
   **   ~~~   ** Supply-to-demand interface deck 1 mass flow rate check value iteration history trace: 7.007912E-002,7.007912E-002,7.007912E-002,7.007912E-002,7.007912E-002,7.007912E-002,7.007912E-002,7.007912E-002,7.007912E-002,7.007912E-002,
   **   ~~~   ** Air System Named = CENTRAL SYSTEM did not converge for energy
   **   ~~~   ** Check values should be zero. Most Recent values listed first.
   **   ~~~   ** Demand-to-Supply interface energy check value iteration history trace: 1388.772234,1388.772234,1388.772234,1388.772234,1388.772234,1388.772234,1388.772234,1388.772233,1388.772233,1388.772233,
   **   ~~~   ** Supply-to-demand interface deck 1 energy check value iteration history trace: 2436.994339,2436.994339,2436.994339,2436.994339,2436.994339,2436.994339,2436.994339,2436.994338,2436.994338,2436.994338,
   ** Warning ** SimHVAC: Maximum iterations (20) exceeded for all HVAC loops, at ANNUAL, 02/11 13:05 - 13:08
   **   ~~~   ** The solution for one or more of the Air Loop HVAC systems did not appear to converge
   **   ~~~   ** Air System Named = CENTRAL SYSTEM did not converge for mass flow rate
   **   ~~~   ** Check values should be zero. Most Recent values listed first.
   **   ~~~   ** Demand-to-Supply interface mass flow rate check value iteration history trace: 4.657799E-002,4.657799E-002,4.657799E-002,4.657799E-002,4.657799E-002,4.657799E-002,4.657799E-002,4.657799E-002,4.657799E-002,4.657799E-002,
   **   ~~~   ** Supply-to-demand interface deck 1 mass flow rate check value iteration history trace: 4.657799E-002,4.657799E-002,4.657799E-002,4.657799E-002,4.657799E-002,4.657799E-002,4.657799E-002,4.657799E-002,4.657799E-002,4.657799E-002,
   **   ~~~   ** Air System Named = CENTRAL SYSTEM did not converge for energy
   **   ~~~   ** Check values should be zero. Most Recent values listed first.
   **   ~~~   ** Demand-to-Supply interface energy check value iteration history trace: 919.051178,919.051178,919.051178,919.051178,919.051178,919.051178,919.051178,919.051178,919.051178,919.051178,
   **   ~~~   ** Supply-to-demand interface deck 1 energy check value iteration history trace: 1769.620677,1769.620676,1769.620676,1769.620676,1769.620676,1769.620676,1769.620676,1769.620676,1769.620676,1769.620676,
   ** Warning ** SimHVAC: Maximum iterations (20) exceeded for all HVAC loops, at ANNUAL, 02/22 03:55 - 04:00
   **   ~~~   ** The solution for one or more of the Air Loop HVAC systems did not appear to converge
   **   ~~~   ** Air System Named = CENTRAL SYSTEM did not converge for mass flow rate
   **   ~~~   ** Check values should be zero. Most Recent values listed first.
   **   ~~~   ** Demand-to-Supply interface mass flow rate check value iteration history trace: 6.764170E-002,6.764170E-002,6.764170E-002,6.764170E-002,6.764170E-002,6.764170E-002,6.764170E-002,6.764170E-002,6.764170E-002,6.764170E-002,
   **   ~~~   ** Supply-to-demand interface deck 1 mass flow rate check value iteration history trace: 6.764170E-002,6.764170E-002,6.764170E-002,6.764170E-002,6.764170E-002,6.764170E-002,6.764170E-002,6.764170E-002,6.764170E-002,6.764170E-002,
   **   ~~~   ** Air System Named = CENTRAL SYSTEM did not converge for energy
   **   ~~~   ** Check values should be zero. Most Recent values listed first.
   **   ~~~   ** Demand-to-Supply interface energy check value iteration history trace: 1263.655123,1263.655123,1263.655123,1263.655123,1263.655123,1263.655123,1263.655123,1263.655123,1263.655123,1263.655122,
   **   ~~~   ** Supply-to-demand interface deck 1 energy check value iteration history trace: 2050.621005,2050.621004,2050.621004,2050.621004,2050.621004,2050.621004,2050.621004,2050.621004,2050.621004,2050.621004,
   ** Warning ** SimHVAC: Maximum iterations (20) exceeded for all HVAC loops, at ANNUAL, 03/01 01:30 - 01:38
   **   ~~~   ** The solution for one or more of the Air Loop HVAC systems did not appear to converge
   **   ~~~   ** Air System Named = CENTRAL SYSTEM did not converge for mass flow rate
   **   ~~~   ** Check values should be zero. Most Recent values listed first.
   **   ~~~   ** Demand-to-Supply interface mass flow rate check value iteration history trace: 1.991135E-002,1.991135E-002,1.991135E-002,1.991135E-002,1.991135E-002,1.991135E-002,1.991135E-002,1.991135E-002,1.991135E-002,1.991135E-002,
   **   ~~~   ** Supply-to-demand interface deck 1 mass flow rate check value iteration history trace: 1.991135E-002,1.991135E-002,1.991135E-002,1.991135E-002,1.991135E-002,1.991135E-002,1.991135E-002,1.991135E-002,1.991135E-002,1.991135E-002,
   **   ~~~   ** Air System Named = CENTRAL SYSTEM did not converge for energy
   **   ~~~   ** Check values should be zero. Most Recent values listed first.
   **   ~~~   ** Demand-to-Supply interface energy check value iteration history trace: 370.324852,370.324852,370.324852,370.324852,370.324852,370.324852,370.324852,370.324851,370.324851,370.324851,
   **   ~~~   ** Supply-to-demand interface deck 1 energy check value iteration history trace: 569.742983,569.742983,569.742983,569.742983,569.742983,569.742983,569.742983,569.742983,569.742983,569.742982,
   ** Warning ** SimHVAC: Maximum iterations (20) exceeded for all HVAC loops, at ANNUAL, 04/18 07:00 - 07:15
   **   ~~~   ** The solution for one or more of the Air Loop HVAC systems did not appear to converge
   **   ~~~   ** Air System Named = CENTRAL SYSTEM did not converge for mass flow rate
   **   ~~~   ** Check values should be zero. Most Recent values listed first.
   **   ~~~   ** Demand-to-Supply interface mass flow rate check value iteration history trace: 6.064163E-002,6.064163E-002,6.064163E-002,6.064163E-002,6.064163E-002,6.064163E-002,6.064163E-002,6.064163E-002,6.064163E-002,6.064163E-002,
   **   ~~~   ** Supply-to-demand interface deck 1 mass flow rate check value iteration history trace: 6.064163E-002,6.064163E-002,6.064163E-002,6.064163E-002,6.064163E-002,6.064163E-002,6.064163E-002,6.064163E-002,6.064163E-002,6.064163E-002,
   **   ~~~   ** Air System Named = CENTRAL SYSTEM did not converge for energy
   **   ~~~   ** Check values should be zero. Most Recent values listed first.
   **   ~~~   ** Demand-to-Supply interface energy check value iteration history trace: 1200.988747,1200.988747,1200.988747,1200.988747,1200.988747,1200.988747,1200.988747,1200.988747,1200.988747,1200.988747,
   **   ~~~   ** Supply-to-demand interface deck 1 energy check value iteration history trace: 2167.076595,2167.076595,2167.076594,2167.076594,2167.076594,2167.076594,2167.076594,2167.076594,2167.076594,2167.076594,
   ** Warning ** SimHVAC: Maximum iterations (20) exceeded for all HVAC loops, at ANNUAL, 04/23 00:30 - 00:45
   **   ~~~   ** The solution for one or more of the Air Loop HVAC systems did not appear to converge
   **   ~~~   ** Air System Named = CENTRAL SYSTEM did not converge for mass flow rate
   **   ~~~   ** Check values should be zero. Most Recent values listed first.
   **   ~~~   ** Demand-to-Supply interface mass flow rate check value iteration history trace: 5.269143E-002,5.269144E-002,5.269144E-002,5.269144E-002,5.269144E-002,5.269144E-002,5.269144E-002,5.269144E-002,5.269144E-002,5.269144E-002,
   **   ~~~   ** Supply-to-demand interface deck 1 mass flow rate check value iteration history trace: 5.269143E-002,5.269144E-002,5.269144E-002,5.269144E-002,5.269144E-002,5.269144E-002,5.269144E-002,5.269144E-002,5.269144E-002,5.269144E-002,
   **   ~~~   ** Air System Named = CENTRAL SYSTEM did not converge for energy
   **   ~~~   ** Check values should be zero. Most Recent values listed first.
   **   ~~~   ** Demand-to-Supply interface energy check value iteration history trace: 1305.961949,1305.961949,1305.961949,1305.961949,1305.961949,1305.961949,1305.961949,1305.961949,1305.961949,1305.961949,
   **   ~~~   ** Supply-to-demand interface deck 1 energy check value iteration history trace: 501.164274,501.164274,501.164274,501.164274,501.164274,501.164274,501.164274,501.164274,501.164274,501.164274,
   ** Warning ** SimHVAC: Maximum iterations (20) exceeded for all HVAC loops, at ANNUAL, 10/13 07:15 - 07:22
   **   ~~~   ** The solution for one or more of the Air Loop HVAC systems did not appear to converge
   **   ~~~   ** Air System Named = CENTRAL SYSTEM did not converge for mass flow rate
   **   ~~~   ** Check values should be zero. Most Recent values listed first.
   **   ~~~   ** Demand-to-Supply interface mass flow rate check value iteration history trace: 5.283827E-002,5.283827E-002,5.283827E-002,5.283827E-002,5.283827E-002,5.283827E-002,5.283827E-002,5.283827E-002,5.283827E-002,5.283827E-002,
   **   ~~~   ** Supply-to-demand interface deck 1 mass flow rate check value iteration history trace: 5.283827E-002,5.283827E-002,5.283827E-002,5.283827E-002,5.283827E-002,5.283827E-002,5.283827E-002,5.283827E-002,5.283827E-002,5.283827E-002,
   **   ~~~   ** Air System Named = CENTRAL SYSTEM did not converge for energy
   **   ~~~   ** Check values should be zero. Most Recent values listed first.
   **   ~~~   ** Demand-to-Supply interface energy check value iteration history trace: 1047.265684,1047.265684,1047.265684,1047.265684,1047.265684,1047.265683,1047.265683,1047.265683,1047.265683,1047.265683,
   **   ~~~   ** Supply-to-demand interface deck 1 energy check value iteration history trace: 1940.769366,1940.769366,1940.769366,1940.769365,1940.769365,1940.769364,1940.769364,1940.769364,1940.769363,1940.769363,
   **   ~~~   ** Node named ZONE INLET NODE shows oscillating temperatures across iterations with a repeated value of 36.553311
   **   ~~~   ** Node named ZONE INLET NODE temperature [C] iteration history trace (most recent first): 36.553311,36.553311,36.553311,36.553310,36.553310,36.553310,36.553309,36.553309,36.553309,36.553309,
   ** Warning ** SimHVAC: Maximum iterations (20) exceeded for all HVAC loops, at ANNUAL, 11/01 06:00 - 06:15
   **   ~~~   ** The solution for one or more of the Air Loop HVAC systems did not appear to converge
   **   ~~~   ** Air System Named = CENTRAL SYSTEM did not converge for mass flow rate
   **   ~~~   ** Check values should be zero. Most Recent values listed first.
   **   ~~~   ** Demand-to-Supply interface mass flow rate check value iteration history trace: 1.518589E-002,1.518589E-002,1.518589E-002,1.518589E-002,1.518589E-002,1.518589E-002,1.518589E-002,1.518589E-002,1.518589E-002,1.518589E-002,
   **   ~~~   ** Supply-to-demand interface deck 1 mass flow rate check value iteration history trace: 1.518589E-002,1.518589E-002,1.518589E-002,1.518589E-002,1.518589E-002,1.518589E-002,1.518589E-002,1.518589E-002,1.518589E-002,1.518589E-002,
   **   ~~~   ** Air System Named = CENTRAL SYSTEM did not converge for energy
   **   ~~~   ** Check values should be zero. Most Recent values listed first.
   **   ~~~   ** Demand-to-Supply interface energy check value iteration history trace: 295.903052,295.903052,295.903052,295.903052,295.903052,295.903052,295.903052,295.903052,295.903052,295.903052,
   **   ~~~   ** Supply-to-demand interface deck 1 energy check value iteration history trace: 554.956828,554.956828,554.956828,554.956828,554.956828,554.956828,554.956828,554.956828,554.956828,554.956828,
   ** Warning ** SimHVAC: Maximum iterations (20) exceeded for all HVAC loops, at ANNUAL, 11/04 13:55 - 14:00
   **   ~~~   ** The solution for one or more of the Air Loop HVAC systems did not appear to converge
   **   ~~~   ** Air System Named = CENTRAL SYSTEM did not converge for mass flow rate
   **   ~~~   ** Check values should be zero. Most Recent values listed first.
   **   ~~~   ** Demand-to-Supply interface mass flow rate check value iteration history trace: 0.227805,0.227805,0.227805,0.227805,0.227805,0.227805,0.227805,0.227805,0.227805,0.227805,
   **   ~~~   ** Supply-to-demand interface deck 1 mass flow rate check value iteration history trace: 0.227805,0.227805,0.227805,0.227805,0.227805,0.227805,0.227805,0.227805,0.227805,0.227805,
   **   ~~~   ** Air System Named = CENTRAL SYSTEM did not converge for energy
   **   ~~~   ** Check values should be zero. Most Recent values listed first.
   **   ~~~   ** Demand-to-Supply interface energy check value iteration history trace: 5474.041294,5474.041294,5474.041294,5474.041294,5474.041295,5474.041295,5474.041295,5474.041296,5474.041296,5474.041296,
   **   ~~~   ** Supply-to-demand interface deck 1 energy check value iteration history trace: 1866.524179,1866.524179,1866.524179,1866.524180,1866.524180,1866.524180,1866.524180,1866.524180,1866.524180,1866.524180,
   ** Warning ** SimHVAC: Maximum iterations (20) exceeded for all HVAC loops, at ANNUAL, 11/04 19:15 - 19:30
   **   ~~~   ** The solution for one or more of the Air Loop HVAC systems did not appear to converge
   **   ~~~   ** Air System Named = CENTRAL SYSTEM did not converge for energy
   **   ~~~   ** Check values should be zero. Most Recent values listed first.
   **   ~~~   ** Demand-to-Supply interface energy check value iteration history trace: 164.126366,164.126366,164.126366,164.126366,164.126366,164.126366,164.126366,164.126366,164.126366,164.126366,
   **   ~~~   ** Supply-to-demand interface deck 1 energy check value iteration history trace: 50.901938,50.901938,50.901938,50.901938,50.901938,50.901938,50.901938,50.901938,50.901938,50.901938,
   ** Warning ** SimHVAC: Maximum iterations (20) exceeded for all HVAC loops, at ANNUAL, 11/10 09:00 - 09:02
   **   ~~~   ** The solution for one or more of the Air Loop HVAC systems did not appear to converge
   **   ~~~   ** Air System Named = CENTRAL SYSTEM did not converge for mass flow rate
   **   ~~~   ** Check values should be zero. Most Recent values listed first.
   **   ~~~   ** Demand-to-Supply interface mass flow rate check value iteration history trace: 5.462369E-002,5.462369E-002,5.462369E-002,5.462369E-002,5.462369E-002,5.462369E-002,5.462369E-002,5.462369E-002,5.462369E-002,5.462369E-002,
   **   ~~~   ** Supply-to-demand interface deck 1 mass flow rate check value iteration history trace: 5.462369E-002,5.462369E-002,5.462369E-002,5.462369E-002,5.462369E-002,5.462369E-002,5.462369E-002,5.462369E-002,5.462369E-002,5.462369E-002,
   **   ~~~   ** Air System Named = CENTRAL SYSTEM did not converge for energy
   **   ~~~   ** Check values should be zero. Most Recent values listed first.
   **   ~~~   ** Demand-to-Supply interface energy check value iteration history trace: 1082.469253,1082.469253,1082.469253,1082.469253,1082.469253,1082.469253,1082.469253,1082.469253,1082.469253,1082.469253,
   **   ~~~   ** Supply-to-demand interface deck 1 energy check value iteration history trace: 1957.110061,1957.110061,1957.110060,1957.110060,1957.110060,1957.110060,1957.110060,1957.110060,1957.110060,1957.110060,
   ************* Simulation Error Summary *************
   ** Warning ** The following Report Variables were requested but not generated -- check.rdd file
   **   ~~~   ** Either the IDF did not contain these elements, the variable name is misspelled,
   **   ~~~   ** or the requested variable is an advanced output which requires Output : Diagnostics, DisplayAdvancedReportVariables;
   ************* Key=*, VarName=BASEBOARD TOTAL HEATING ENERGY, Frequency=
   ************* Key=*, VarName=WATER HEATER NATURALGAS ENERGY, Frequency=
   ************* Key=*, VarName=COOLING COIL TOTAL HEATING ENERGY, Frequency=
   ************* There are 34 unused schedules in input.
   ************* There are 388 unused week schedules in input.
   ************* There are 397 unused day schedules in input.
   ************* Use Output:Diagnostics,DisplayUnusedSchedules; to see them.
   *************
   ************* ===== Recurring Error Summary =====
   ************* The following recurring error messages occurred.
   *************
   *************  ** Warning ** "TOTAL HOT WATER LOAD" - Target water temperature should be less than or equal to the hot water temperature error continues...
   *************  **   ~~~   **   This error occurred 115865 total times;
   *************  **   ~~~   **   during Warmup 0 times;
   *************  **   ~~~   **   during Sizing 0 times.
   *************  **   ~~~   **   Max=9.526969  Min=1.395203E-003
   *************
   *************  ** Warning ** SimHVAC: Exceeding Maximum iterations for all HVAC loops, during ANNUAL continues
   *************  **   ~~~   **   This error occurred 8 total times;
   *************  **   ~~~   **   during Warmup 0 times;
   *************  **   ~~~   **   during Sizing 0 times.
   *************
   *************
   ************* ===== Final Error Summary =====
   ************* The following error categories occurred.  Consider correcting or noting.
   ************* Loads Initialization did not Converge
   ************* ..1) very high thermal mass such as very thick concrete (solution: increase max number of warmup
   ************* ..   days in the BUILDING object);
   ************* ..2) moderate mass and inadequate space conditioning such that the building keeps getting warmer
   ************* ..   and warmer on successive days (solution: add HVAC, check building thermal properties,
   ************* ..   check if infiltration is included, make sure HVAC properly controlled);
   ************* ..3) a soil layer modeled below the concrete slab - (solution remove this layer and read about
   ************* ..   ground temperatures in the Auxiliary Programs document).
   ************* ..4) unreasonable (too small) limits in the BUILDING object for temperature (.4 default) or
   ************* ..   loads tolerances (.04 default)
   ************* Nominally Unused Constructions
   ************* ..The nominally unused constructions warning is provided to alert you to potential conditions that can cause
   ************* ..extra time during simulation. Each construction is calculated by the algorithm indicated in the HeatBalanceAlgorithm
   ************* ..object. You may remove the constructions indicated (when you use the DisplayExtraWarnings option).
   *************
   ************* EnergyPlus Warmup Error Summary. During Warmup: 1 Warning; 2 Severe Errors.
   ************* EnergyPlus Sizing Error Summary. During Sizing: 4 Warning; 0 Severe Errors.
   ************* EnergyPlus Completed Successfully-- 115906 Warning; 2 Severe Errors; Elapsed Time=00hr 01min 48.65sec
