Program Version,EnergyPlus, Version 22.2.0-c249759bad, YMD=2023.09.01 14:43,
   ************* Beginning Zone Sizing Calculations
   ** Warning ** ProcessScheduleInput: Schedule:Constant="ALWAYS ON DISCRETE", Schedule Type Limits Name="ONOFF" not found -- will not be validated
   ** Warning ** Foundation:Kiva="KIVA FOUNDATION", no Interior Horizontal Insulation Material Name defined
   **   ~~~   ** Interior Horizontal Insulation Depth will not be used.
   ** Warning ** CheckUsedConstructions: There are 15 nominally unused constructions in input.
   **   ~~~   ** Each Unused construction is shown.
   ************* Construction=INTERIOR FLOOR
   ************* Construction=INTERIOR WINDOW
   ************* Construction=EXTERIOR DOOR
   ************* Construction=INTERIOR DOOR
   ************* Construction=GABLE CONSTRUCTION
   ************* Construction=CRAWL_FLOOR
   ************* Construction=INSULATED PIPE
   ************* Construction=PLAIN PIPE
   ************* Construction=TDD PIPE
   ************* Construction=TDD DOME
   ************* Construction=TDD DIFFUSER
   ************* Construction=CRAWL WALL
   ************* Construction=CEILING-FLOOR-LAYER
   ************* Construction=SLAB CONSTRUCTION W FULL R10 INSULATION
   ************* Construction=SLAB CONSTRUCTION W FULL R5 INSULATION
   ** Warning ** GetDXCoils: Coil:Heating:DX:SingleSpeed="DX_HEATING_COIL" curve values
   **   ~~~   ** ... Defrost Energy Input Ratio Function of Temperature Curve Name = DEFROSTEIR output is not equal to 1.0 (+ or - 10%) at rated conditions.
   **   ~~~   ** ... Curve output at rated conditions = 0.152
   ************* Beginning System Sizing Calculations
   ************* Beginning Plant Sizing Calculations
   ** Warning ** Coil:WaterHeating:AirToWaterHeatPump:Wrapped "HEAT PUMP WATER HEATER EVAPORATOR": Rated air volume flow rate per watt of rated total water heating capacity is out of range
   **   ~~~   ** Min Rated Vol Flow Per Watt=[4.027E-005], Rated Vol Flow Per Watt=[1.386E-004], Max Rated Vol Flow Per Watt=[8.056E-005]. See Input-Output Reference Manual for valid range.
   ** Warning ** Water heater = WATER HEATER TANK:  Recovery Efficiency and Energy Factor could not be calculated during the test for standard ratings
   **   ~~~   ** Setpoint was never recovered and/or heater never turned on
   ** Warning ** Check input. Pump nominal power or motor efficiency is set to 0, for pump=MAINS PRESSURE
   ** Warning ** Output:Meter: invalid Key Name="ELECTRIC_RANGE:INTERIOREQUIPMENT:ELECTRICITY" - not found.
   ** Warning ** Output:Meter: invalid Key Name="ELECTRIC_DRYER:INTERIOREQUIPMENT:ELECTRICITY" - not found.
   ** Warning ** Output:Meter: invalid Key Name="HEATRECOVERY:ELECTRICITY" - not found.
   ** Warning ** Output:Meter: invalid Key Name="HEATING:NATURALGAS" - not found.
   ** Warning ** Output:Meter: invalid Key Name="WATERSYSTEMS:NATURALGAS" - not found.
   ** Warning ** Output:Meter: invalid Key Name="PROPANE:FACILITY" - not found.
   ** Warning ** Output:Meter: invalid Key Name="HEATING:PROPANE" - not found.
   ************* Testing Individual Branch Integrity
   ************* All Branches passed integrity testing
   ************* Testing Individual Supply Air Path Integrity
   ************* All Supply Air Paths passed integrity testing
   ************* Testing Individual Return Air Path Integrity
   ************* All Return Air Paths passed integrity testing
   ************* No node connection errors were found.
   ************* Beginning Simulation
   ** Warning ** AirflowNetwork::Solver::validate_distribution: Heat pump water heater is simulated along with an AirflowNetwork but is not included in the AirflowNetwork.
   ** Warning ** CalcEquipmentFlowRates: "TOTAL HOT WATER LOAD" - Target water temperature is greater than the hot water temperature by (1.64 C)
   **   ~~~   **  Environment=EXTREME_WINTER, at Simulation time=01/08 06:00 - 06:15
   **   ~~~   ** ...target water temperature     = 53.33 C
   **   ~~~   ** ...hot water temperature        = 51.69 C
   **   ~~~   ** ...Target water temperature should be less than or equal to the hot water temperature. Verify temperature setpoints and schedules.
   ** Warning ** Temperature out of range [-100. to 200.] (PsyPsatFnTemp)
   **   ~~~   **  Routine=PsyTwbFnTdbWPb, Environment=ANNUAL, at Simulation time=01/19 05:30 - 05:35
   **   ~~~   **  Input Temperature=-127.09
   ** Warning ** SimHVAC: Maximum iterations (20) exceeded for all HVAC loops, at ANNUAL, 03/25 11:30 - 11:45
   **   ~~~   ** The solution for one or more of the Air Loop HVAC systems did not appear to converge
   **   ~~~   ** Air System Named = CENTRAL SYSTEM did not converge for mass flow rate
   **   ~~~   ** Check values should be zero. Most Recent values listed first.
   **   ~~~   ** Demand-to-Supply interface mass flow rate check value iteration history trace: 7.075141E-002,7.075141E-002,7.075141E-002,7.075141E-002,7.075141E-002,7.075141E-002,7.075141E-002,7.075141E-002,7.075141E-002,7.075141E-002,
   **   ~~~   ** Supply-to-demand interface deck 1 mass flow rate check value iteration history trace: 7.075141E-002,7.075141E-002,7.075141E-002,7.075141E-002,7.075141E-002,7.075141E-002,7.075141E-002,7.075141E-002,7.075141E-002,7.075141E-002,
   **   ~~~   ** Air System Named = CENTRAL SYSTEM did not converge for energy
   **   ~~~   ** Check values should be zero. Most Recent values listed first.
   **   ~~~   ** Demand-to-Supply interface energy check value iteration history trace: 1401.692195,1401.692195,1401.692195,1401.692195,1401.692195,1401.692195,1401.692195,1401.692195,1401.692195,1401.692195,
   **   ~~~   ** Supply-to-demand interface deck 1 energy check value iteration history trace: 2217.093842,2217.093842,2217.093842,2217.093841,2217.093841,2217.093841,2217.093841,2217.093841,2217.093841,2217.093841,
   ** Warning ** SimHVAC: Maximum iterations (20) exceeded for all HVAC loops, at ANNUAL, 03/25 11:30 - 11:38
   **   ~~~   ** The solution for one or more of the Air Loop HVAC systems did not appear to converge
   **   ~~~   ** Air System Named = CENTRAL SYSTEM did not converge for mass flow rate
   **   ~~~   ** Check values should be zero. Most Recent values listed first.
   **   ~~~   ** Demand-to-Supply interface mass flow rate check value iteration history trace: 7.537601E-002,7.537601E-002,7.537601E-002,7.537601E-002,7.537601E-002,7.537601E-002,7.537601E-002,7.537601E-002,7.537601E-002,7.537601E-002,
   **   ~~~   ** Supply-to-demand interface deck 1 mass flow rate check value iteration history trace: 7.537601E-002,7.537601E-002,7.537601E-002,7.537601E-002,7.537601E-002,7.537601E-002,7.537601E-002,7.537601E-002,7.537601E-002,7.537601E-002,
   **   ~~~   ** Air System Named = CENTRAL SYSTEM did not converge for energy
   **   ~~~   ** Check values should be zero. Most Recent values listed first.
   **   ~~~   ** Demand-to-Supply interface energy check value iteration history trace: 1493.312302,1493.312302,1493.312302,1493.312302,1493.312302,1493.312302,1493.312302,1493.312302,1493.312302,1493.312301,
   **   ~~~   ** Supply-to-demand interface deck 1 energy check value iteration history trace: 2361.985120,2361.985120,2361.985120,2361.985119,2361.985119,2361.985119,2361.985119,2361.985119,2361.985119,2361.985119,
   ** Warning ** SimHVAC: Maximum iterations (20) exceeded for all HVAC loops, at ANNUAL, 03/26 11:30 - 11:33
   **   ~~~   ** The solution for one or more of the Air Loop HVAC systems did not appear to converge
   **   ~~~   ** Air System Named = CENTRAL SYSTEM did not converge for mass flow rate
   **   ~~~   ** Check values should be zero. Most Recent values listed first.
   **   ~~~   ** Demand-to-Supply interface mass flow rate check value iteration history trace: 8.769866E-002,8.769866E-002,8.769866E-002,8.769866E-002,8.769866E-002,8.769866E-002,8.769866E-002,8.769866E-002,8.769866E-002,8.769866E-002,
   **   ~~~   ** Supply-to-demand interface deck 1 mass flow rate check value iteration history trace: 8.769866E-002,8.769866E-002,8.769866E-002,8.769866E-002,8.769866E-002,8.769866E-002,8.769866E-002,8.769866E-002,8.769866E-002,8.769866E-002,
   **   ~~~   ** Air System Named = CENTRAL SYSTEM did not converge for energy
   **   ~~~   ** Check values should be zero. Most Recent values listed first.
   **   ~~~   ** Demand-to-Supply interface energy check value iteration history trace: 1737.933658,1737.933658,1737.933658,1737.933658,1737.933657,1737.933657,1737.933657,1737.933657,1737.933657,1737.933657,
   **   ~~~   ** Supply-to-demand interface deck 1 energy check value iteration history trace: 2724.751672,2724.751672,2724.751672,2724.751672,2724.751671,2724.751671,2724.751671,2724.751671,2724.751671,2724.751671,
   ** Warning ** SimHVAC: Maximum iterations (20) exceeded for all HVAC loops, at ANNUAL, 03/26 12:00 - 12:05
   **   ~~~   ** The solution for one or more of the Air Loop HVAC systems did not appear to converge
   **   ~~~   ** Air System Named = CENTRAL SYSTEM did not converge for mass flow rate
   **   ~~~   ** Check values should be zero. Most Recent values listed first.
   **   ~~~   ** Demand-to-Supply interface mass flow rate check value iteration history trace: 8.028634E-002,8.028634E-002,8.028634E-002,8.028634E-002,8.028634E-002,8.028634E-002,8.028634E-002,8.028634E-002,8.028634E-002,8.028634E-002,
   **   ~~~   ** Supply-to-demand interface deck 1 mass flow rate check value iteration history trace: 8.028634E-002,8.028634E-002,8.028634E-002,8.028634E-002,8.028634E-002,8.028634E-002,8.028634E-002,8.028634E-002,8.028634E-002,8.028634E-002,
   **   ~~~   ** Air System Named = CENTRAL SYSTEM did not converge for energy
   **   ~~~   ** Check values should be zero. Most Recent values listed first.
   **   ~~~   ** Demand-to-Supply interface energy check value iteration history trace: 1587.666566,1587.666566,1587.666566,1587.666566,1587.666566,1587.666566,1587.666566,1587.666566,1587.666565,1587.666565,
   **   ~~~   ** Supply-to-demand interface deck 1 energy check value iteration history trace: 2501.122038,2501.122038,2501.122037,2501.122037,2501.122037,2501.122037,2501.122037,2501.122037,2501.122036,2501.122036,
   ** Warning ** SimHVAC: Maximum iterations (20) exceeded for all HVAC loops, at ANNUAL, 04/06 08:00 - 08:15
   **   ~~~   ** The solution for one or more of the Air Loop HVAC systems did not appear to converge
   **   ~~~   ** Air System Named = CENTRAL SYSTEM did not converge for mass flow rate
   **   ~~~   ** Check values should be zero. Most Recent values listed first.
   **   ~~~   ** Demand-to-Supply interface mass flow rate check value iteration history trace: 6.348195E-002,6.348195E-002,6.348195E-002,6.348195E-002,6.348195E-002,6.348195E-002,6.348195E-002,6.348195E-002,6.348195E-002,6.348195E-002,
   **   ~~~   ** Supply-to-demand interface deck 1 mass flow rate check value iteration history trace: 6.348195E-002,6.348195E-002,6.348195E-002,6.348195E-002,6.348195E-002,6.348195E-002,6.348195E-002,6.348195E-002,6.348195E-002,6.348195E-002,
   **   ~~~   ** Air System Named = CENTRAL SYSTEM did not converge for energy
   **   ~~~   ** Check values should be zero. Most Recent values listed first.
   **   ~~~   ** Demand-to-Supply interface energy check value iteration history trace: 1254.097908,1254.097908,1254.097908,1254.097908,1254.097908,1254.097908,1254.097908,1254.097908,1254.097908,1254.097908,
   **   ~~~   ** Supply-to-demand interface deck 1 energy check value iteration history trace: 2235.931764,2235.931764,2235.931763,2235.931763,2235.931763,2235.931763,2235.931763,2235.931763,2235.931763,2235.931763,
   ** Warning ** SimHVAC: Maximum iterations (20) exceeded for all HVAC loops, at ANNUAL, 04/20 07:00 - 07:15
   **   ~~~   ** The solution for one or more of the Air Loop HVAC systems did not appear to converge
   **   ~~~   ** Air System Named = CENTRAL SYSTEM did not converge for mass flow rate
   **   ~~~   ** Check values should be zero. Most Recent values listed first.
   **   ~~~   ** Demand-to-Supply interface mass flow rate check value iteration history trace: 5.810478E-002,5.810478E-002,5.810478E-002,5.810478E-002,5.810478E-002,5.810478E-002,5.810478E-002,5.810478E-002,5.810478E-002,5.810478E-002,
   **   ~~~   ** Supply-to-demand interface deck 1 mass flow rate check value iteration history trace: 5.810478E-002,5.810478E-002,5.810478E-002,5.810478E-002,5.810478E-002,5.810478E-002,5.810478E-002,5.810478E-002,5.810478E-002,5.810478E-002,
   **   ~~~   ** Air System Named = CENTRAL SYSTEM did not converge for energy
   **   ~~~   ** Check values should be zero. Most Recent values listed first.
   **   ~~~   ** Demand-to-Supply interface energy check value iteration history trace: 1151.947991,1151.947991,1151.947991,1151.947991,1151.947991,1151.947991,1151.947990,1151.947990,1151.947990,1151.947990,
   **   ~~~   ** Supply-to-demand interface deck 1 energy check value iteration history trace: 2119.659372,2119.659372,2119.659372,2119.659372,2119.659372,2119.659372,2119.659372,2119.659372,2119.659371,2119.659371,
   ** Warning ** SimHVAC: Maximum iterations (20) exceeded for all HVAC loops, at ANNUAL, 04/28 06:38 - 06:45
   **   ~~~   ** The solution for one or more of the Air Loop HVAC systems did not appear to converge
   **   ~~~   ** Air System Named = CENTRAL SYSTEM did not converge for mass flow rate
   **   ~~~   ** Check values should be zero. Most Recent values listed first.
   **   ~~~   ** Demand-to-Supply interface mass flow rate check value iteration history trace: 7.901314E-002,7.901314E-002,7.901314E-002,7.901314E-002,7.901314E-002,7.901314E-002,7.901314E-002,7.901314E-002,7.901314E-002,7.901314E-002,
   **   ~~~   ** Supply-to-demand interface deck 1 mass flow rate check value iteration history trace: 7.901314E-002,7.901314E-002,7.901314E-002,7.901314E-002,7.901314E-002,7.901314E-002,7.901314E-002,7.901314E-002,7.901314E-002,7.901314E-002,
   **   ~~~   ** Air System Named = CENTRAL SYSTEM did not converge for energy
   **   ~~~   ** Check values should be zero. Most Recent values listed first.
   **   ~~~   ** Demand-to-Supply interface energy check value iteration history trace: 1565.653350,1565.653350,1565.653350,1565.653350,1565.653350,1565.653350,1565.653350,1565.653350,1565.653350,1565.653349,
   **   ~~~   ** Supply-to-demand interface deck 1 energy check value iteration history trace: 2793.197697,2793.197697,2793.197696,2793.197696,2793.197696,2793.197696,2793.197696,2793.197696,2793.197696,2793.197696,
   ** Warning ** SimHVAC: Maximum iterations (20) exceeded for all HVAC loops, at ANNUAL, 10/10 08:30 - 08:45
   **   ~~~   ** The solution for one or more of the Air Loop HVAC systems did not appear to converge
   **   ~~~   ** Air System Named = CENTRAL SYSTEM did not converge for mass flow rate
   **   ~~~   ** Check values should be zero. Most Recent values listed first.
   **   ~~~   ** Demand-to-Supply interface mass flow rate check value iteration history trace: 4.604424E-002,4.604424E-002,4.604424E-002,4.604424E-002,4.604424E-002,4.604424E-002,4.604424E-002,4.604424E-002,4.604424E-002,4.604424E-002,
   **   ~~~   ** Supply-to-demand interface deck 1 mass flow rate check value iteration history trace: 4.604424E-002,4.604424E-002,4.604424E-002,4.604424E-002,4.604424E-002,4.604424E-002,4.604424E-002,4.604424E-002,4.604424E-002,4.604424E-002,
   **   ~~~   ** Air System Named = CENTRAL SYSTEM did not converge for energy
   **   ~~~   ** Check values should be zero. Most Recent values listed first.
   **   ~~~   ** Demand-to-Supply interface energy check value iteration history trace: 910.531626,910.531626,910.531626,910.531626,910.531626,910.531626,910.531626,910.531625,910.531625,910.531625,
   **   ~~~   ** Supply-to-demand interface deck 1 energy check value iteration history trace: 1637.402707,1637.402707,1637.402707,1637.402706,1637.402706,1637.402706,1637.402706,1637.402705,1637.402705,1637.402705,
   ** Warning ** SimHVAC: Maximum iterations (20) exceeded for all HVAC loops, at ANNUAL, 10/15 11:00 - 11:15
   **   ~~~   ** The solution for one or more of the Air Loop HVAC systems did not appear to converge
   **   ~~~   ** Air System Named = CENTRAL SYSTEM did not converge for mass flow rate
   **   ~~~   ** Check values should be zero. Most Recent values listed first.
   **   ~~~   ** Demand-to-Supply interface mass flow rate check value iteration history trace: 7.303437E-002,7.303437E-002,7.303437E-002,7.303437E-002,7.303437E-002,7.303437E-002,7.303437E-002,7.303437E-002,7.303437E-002,7.303437E-002,
   **   ~~~   ** Supply-to-demand interface deck 1 mass flow rate check value iteration history trace: 7.303437E-002,7.303437E-002,7.303437E-002,7.303437E-002,7.303437E-002,7.303437E-002,7.303437E-002,7.303437E-002,7.303437E-002,7.303437E-002,
   **   ~~~   ** Air System Named = CENTRAL SYSTEM did not converge for energy
   **   ~~~   ** Check values should be zero. Most Recent values listed first.
   **   ~~~   ** Demand-to-Supply interface energy check value iteration history trace: 1735.384867,1735.384868,1735.384868,1735.384868,1735.384869,1735.384869,1735.384870,1735.384870,1735.384870,1735.384871,
   **   ~~~   ** Supply-to-demand interface deck 1 energy check value iteration history trace: 870.619801,870.619801,870.619801,870.619801,870.619802,870.619802,870.619802,870.619802,870.619802,870.619803,
   ** Warning ** SimHVAC: Maximum iterations (20) exceeded for all HVAC loops, at ANNUAL, 10/21 19:45 - 20:00
   **   ~~~   ** The solution for one or more of the Air Loop HVAC systems did not appear to converge
   **   ~~~   ** Air System Named = CENTRAL SYSTEM did not converge for mass flow rate
   **   ~~~   ** Check values should be zero. Most Recent values listed first.
   **   ~~~   ** Demand-to-Supply interface mass flow rate check value iteration history trace: 0.127553,0.127553,0.127553,0.127553,0.127553,0.127553,0.127553,0.127553,0.127553,0.127553,
   **   ~~~   ** Supply-to-demand interface deck 1 mass flow rate check value iteration history trace: 0.127553,0.127553,0.127553,0.127553,0.127553,0.127553,0.127553,0.127553,0.127553,0.127553,
   **   ~~~   ** Air System Named = CENTRAL SYSTEM did not converge for energy
   **   ~~~   ** Check values should be zero. Most Recent values listed first.
   **   ~~~   ** Demand-to-Supply interface energy check value iteration history trace: 3060.532077,3060.532077,3060.532078,3060.532078,3060.532078,3060.532078,3060.532079,3060.532079,3060.532079,3060.532079,
   **   ~~~   ** Supply-to-demand interface deck 1 energy check value iteration history trace: 1371.538263,1371.538263,1371.538263,1371.538263,1371.538263,1371.538264,1371.538264,1371.538264,1371.538264,1371.538264,
   ** Warning ** SimHVAC: Maximum iterations (20) exceeded for all HVAC loops, at ANNUAL, 10/31 07:30 - 07:45
   **   ~~~   ** The solution for one or more of the Air Loop HVAC systems did not appear to converge
   **   ~~~   ** Air System Named = CENTRAL SYSTEM did not converge for mass flow rate
   **   ~~~   ** Check values should be zero. Most Recent values listed first.
   **   ~~~   ** Demand-to-Supply interface mass flow rate check value iteration history trace: 4.924012E-002,4.924012E-002,4.924012E-002,4.924012E-002,4.924012E-002,4.924012E-002,4.924012E-002,4.924012E-002,4.924012E-002,4.924012E-002,
   **   ~~~   ** Supply-to-demand interface deck 1 mass flow rate check value iteration history trace: 4.924012E-002,4.924012E-002,4.924012E-002,4.924012E-002,4.924012E-002,4.924012E-002,4.924012E-002,4.924012E-002,4.924012E-002,4.924012E-002,
   **   ~~~   ** Air System Named = CENTRAL SYSTEM did not converge for energy
   **   ~~~   ** Check values should be zero. Most Recent values listed first.
   **   ~~~   ** Demand-to-Supply interface energy check value iteration history trace: 976.075935,976.075935,976.075935,976.075935,976.075935,976.075935,976.075935,976.075935,976.075935,976.075935,
   **   ~~~   ** Supply-to-demand interface deck 1 energy check value iteration history trace: 1758.277142,1758.277142,1758.277142,1758.277142,1758.277142,1758.277142,1758.277142,1758.277142,1758.277142,1758.277142,
   ** Warning ** SimHVAC: Maximum iterations (20) exceeded for all HVAC loops, at ANNUAL, 11/30 19:08 - 19:15
   **   ~~~   ** The solution for one or more of the Air Loop HVAC systems did not appear to converge
   **   ~~~   ** Air System Named = CENTRAL SYSTEM did not converge for mass flow rate
   **   ~~~   ** Check values should be zero. Most Recent values listed first.
   **   ~~~   ** Demand-to-Supply interface mass flow rate check value iteration history trace: 8.858550E-002,8.858550E-002,8.858550E-002,8.858550E-002,8.858550E-002,8.858550E-002,8.858550E-002,8.858550E-002,8.858550E-002,8.858550E-002,
   **   ~~~   ** Supply-to-demand interface deck 1 mass flow rate check value iteration history trace: 8.858550E-002,8.858550E-002,8.858550E-002,8.858550E-002,8.858550E-002,8.858550E-002,8.858550E-002,8.858550E-002,8.858550E-002,8.858550E-002,
   **   ~~~   ** Air System Named = CENTRAL SYSTEM did not converge for energy
   **   ~~~   ** Check values should be zero. Most Recent values listed first.
   **   ~~~   ** Demand-to-Supply interface energy check value iteration history trace: 1754.382047,1754.382047,1754.382047,1754.382047,1754.382046,1754.382046,1754.382046,1754.382046,1754.382046,1754.382046,
   **   ~~~   ** Supply-to-demand interface deck 1 energy check value iteration history trace: 2990.686925,2990.686925,2990.686925,2990.686924,2990.686924,2990.686924,2990.686924,2990.686924,2990.686924,2990.686923,
   ** Warning ** SimHVAC: Maximum iterations (20) exceeded for all HVAC loops, at ANNUAL, 12/20 16:11 - 16:15
   **   ~~~   ** The solution for one or more of the Air Loop HVAC systems did not appear to converge
   **   ~~~   ** Air System Named = CENTRAL SYSTEM did not converge for mass flow rate
   **   ~~~   ** Check values should be zero. Most Recent values listed first.
   **   ~~~   ** Demand-to-Supply interface mass flow rate check value iteration history trace: 9.875388E-002,9.875388E-002,9.875388E-002,9.875388E-002,9.875388E-002,9.875388E-002,9.875388E-002,9.875388E-002,9.875388E-002,9.875388E-002,
   **   ~~~   ** Supply-to-demand interface deck 1 mass flow rate check value iteration history trace: 9.875388E-002,9.875388E-002,9.875388E-002,9.875388E-002,9.875388E-002,9.875388E-002,9.875388E-002,9.875388E-002,9.875388E-002,9.875388E-002,
   **   ~~~   ** Air System Named = CENTRAL SYSTEM did not converge for energy
   **   ~~~   ** Check values should be zero. Most Recent values listed first.
   **   ~~~   ** Demand-to-Supply interface energy check value iteration history trace: 1951.884462,1951.884462,1951.884462,1951.884462,1951.884462,1951.884462,1951.884461,1951.884461,1951.884461,1951.884461,
   **   ~~~   ** Supply-to-demand interface deck 1 energy check value iteration history trace: 2952.800077,2952.800077,2952.800077,2952.800077,2952.800076,2952.800076,2952.800076,2952.800076,2952.800076,2952.800075,
   ** Warning ** SimHVAC: Maximum iterations (20) exceeded for all HVAC loops, at ANNUAL, 12/23 19:30 - 19:38
   **   ~~~   ** The solution for one or more of the Air Loop HVAC systems did not appear to converge
   **   ~~~   ** Air System Named = CENTRAL SYSTEM did not converge for mass flow rate
   **   ~~~   ** Check values should be zero. Most Recent values listed first.
   **   ~~~   ** Demand-to-Supply interface mass flow rate check value iteration history trace: 8.223906E-002,8.223906E-002,8.223906E-002,8.223906E-002,8.223906E-002,8.223906E-002,8.223906E-002,8.223906E-002,8.223906E-002,8.223906E-002,
   **   ~~~   ** Supply-to-demand interface deck 1 mass flow rate check value iteration history trace: 8.223906E-002,8.223906E-002,8.223906E-002,8.223906E-002,8.223906E-002,8.223906E-002,8.223906E-002,8.223906E-002,8.223906E-002,8.223906E-002,
   **   ~~~   ** Air System Named = CENTRAL SYSTEM did not converge for energy
   **   ~~~   ** Check values should be zero. Most Recent values listed first.
   **   ~~~   ** Demand-to-Supply interface energy check value iteration history trace: 1628.681437,1628.681437,1628.681437,1628.681437,1628.681437,1628.681437,1628.681437,1628.681437,1628.681437,1628.681437,
   **   ~~~   ** Supply-to-demand interface deck 1 energy check value iteration history trace: 2750.697519,2750.697518,2750.697518,2750.697518,2750.697518,2750.697518,2750.697518,2750.697518,2750.697517,2750.697517,
   ************* Simulation Error Summary *************
   ** Warning ** The following Report Variables were requested but not generated -- check.rdd file
   **   ~~~   ** Either the IDF did not contain these elements, the variable name is misspelled,
   **   ~~~   ** or the requested variable is an advanced output which requires Output : Diagnostics, DisplayAdvancedReportVariables;
   ************* Key=*, VarName=BASEBOARD TOTAL HEATING ENERGY, Frequency=
   ************* Key=*, VarName=WATER HEATER NATURALGAS ENERGY, Frequency=
   ************* Key=*, VarName=COOLING COIL TOTAL HEATING ENERGY, Frequency=
   ************* There are 34 unused schedules in input.
   ************* There are 388 unused week schedules in input.
   ************* There are 396 unused day schedules in input.
   ************* Use Output:Diagnostics,DisplayUnusedSchedules; to see them.
   *************
   ************* ===== Recurring Error Summary =====
   ************* The following recurring error messages occurred.
   *************
   *************  ** Warning ** "TOTAL HOT WATER LOAD" - Target water temperature should be less than or equal to the hot water temperature error continues...
   *************  **   ~~~   **   This error occurred 93875 total times;
   *************  **   ~~~   **   during Warmup 0 times;
   *************  **   ~~~   **   during Sizing 0 times.
   *************  **   ~~~   **   Max=10.223002  Min=2.823247E-005
   *************
   *************  ** Warning ** Temperature out of range [-100. to 200.] (PsyPsatFnTemp)
   *************  **   ~~~   **   This error occurred 2 total times;
   *************  **   ~~~   **   during Warmup 0 times;
   *************  **   ~~~   **   during Sizing 0 times.
   *************  **   ~~~   **   Max=-127.095985 C  Min=-238.311241 C
   *************
   *************
   ************* ===== Final Error Summary =====
   ************* The following error categories occurred.  Consider correcting or noting.
   ************* Nominally Unused Constructions
   ************* ..The nominally unused constructions warning is provided to alert you to potential conditions that can cause
   ************* ..extra time during simulation. Each construction is calculated by the algorithm indicated in the HeatBalanceAlgorithm
   ************* ..object. You may remove the constructions indicated (when you use the DisplayExtraWarnings option).
   *************
   ************* EnergyPlus Warmup Error Summary. During Warmup: 1 Warning; 0 Severe Errors.
   ************* EnergyPlus Sizing Error Summary. During Sizing: 4 Warning; 0 Severe Errors.
   ************* EnergyPlus Completed Successfully-- 93908 Warning; 0 Severe Errors; Elapsed Time=00hr 05min 31.62sec
