Program Version,EnergyPlus, Version 22.2.0-c249759bad, YMD=2023.09.01 19:41,
   ************* Beginning Zone Sizing Calculations
   ** Warning ** ProcessScheduleInput: Schedule:Constant="ALWAYS ON DISCRETE", Schedule Type Limits Name="ONOFF" not found -- will not be validated
   ** Warning ** Foundation:Kiva="KIVA FOUNDATION", no Interior Horizontal Insulation Material Name defined
   **   ~~~   ** Interior Horizontal Insulation Depth will not be used.
   ** Warning ** CheckUsedConstructions: There are 15 nominally unused constructions in input.
   **   ~~~   ** Each Unused construction is shown.
   ************* Construction=INTERIOR FLOOR
   ************* Construction=INTERIOR WINDOW
   ************* Construction=EXTERIOR DOOR
   ************* Construction=INTERIOR DOOR
   ************* Construction=GABLE CONSTRUCTION
   ************* Construction=CRAWL_FLOOR
   ************* Construction=INSULATED PIPE
   ************* Construction=PLAIN PIPE
   ************* Construction=TDD PIPE
   ************* Construction=TDD DOME
   ************* Construction=TDD DIFFUSER
   ************* Construction=CRAWL WALL
   ************* Construction=CEILING-FLOOR-LAYER
   ************* Construction=SLAB CONSTRUCTION W FULL R10 INSULATION
   ************* Construction=SLAB CONSTRUCTION W FULL R5 INSULATION
   ** Warning ** GetDXCoils: Coil:Heating:DX:SingleSpeed="DX_HEATING_COIL" curve values
   **   ~~~   ** ... Defrost Energy Input Ratio Function of Temperature Curve Name = DEFROSTEIR output is not equal to 1.0 (+ or - 10%) at rated conditions.
   **   ~~~   ** ... Curve output at rated conditions = 0.152
   ************* Beginning System Sizing Calculations
   ************* Beginning Plant Sizing Calculations
   ** Warning ** Coil:WaterHeating:AirToWaterHeatPump:Wrapped "HEAT PUMP WATER HEATER EVAPORATOR": Rated air volume flow rate per watt of rated total water heating capacity is out of range
   **   ~~~   ** Min Rated Vol Flow Per Watt=[4.027E-005], Rated Vol Flow Per Watt=[1.510E-004], Max Rated Vol Flow Per Watt=[8.056E-005]. See Input-Output Reference Manual for valid range.
   ************* SizeFan: : Potential issue with equipment sizing for Fan:OnOff HEAT PUMP WATER HEATER FAN
   **   ~~~   ** User-Specified Maximum Flow Rate [m3/s] = 0.22653
   **   ~~~   ** differs from Design Size Maximum Flow Rate [m3/s] = 7.55250E-002
   **   ~~~   ** This may, or may not, indicate mismatched component sizes.
   **   ~~~   ** Verify that the value entered is intended and is consistent with other components.
   ** Warning ** Water heater = WATER HEATER TANK:  Recovery Efficiency and Energy Factor could not be calculated during the test for standard ratings
   **   ~~~   ** Setpoint was never recovered and/or heater never turned on
   ** Warning ** Check input. Pump nominal power or motor efficiency is set to 0, for pump=MAINS PRESSURE
   ** Warning ** Output:Meter: invalid Key Name="ELECTRIC_RANGE:INTERIOREQUIPMENT:ELECTRICITY" - not found.
   ** Warning ** Output:Meter: invalid Key Name="ELECTRIC_DRYER:INTERIOREQUIPMENT:ELECTRICITY" - not found.
   ** Warning ** Output:Meter: invalid Key Name="HEATRECOVERY:ELECTRICITY" - not found.
   ** Warning ** Output:Meter: invalid Key Name="HEATING:NATURALGAS" - not found.
   ** Warning ** Output:Meter: invalid Key Name="WATERSYSTEMS:NATURALGAS" - not found.
   ** Warning ** Output:Meter: invalid Key Name="PROPANE:FACILITY" - not found.
   ** Warning ** Output:Meter: invalid Key Name="HEATING:PROPANE" - not found.
   ************* Testing Individual Branch Integrity
   ************* All Branches passed integrity testing
   ************* Testing Individual Supply Air Path Integrity
   ************* All Supply Air Paths passed integrity testing
   ************* Testing Individual Return Air Path Integrity
   ************* All Return Air Paths passed integrity testing
   ************* No node connection errors were found.
   ************* Beginning Simulation
   ** Warning ** AirflowNetwork::Solver::validate_distribution: Heat pump water heater is simulated along with an AirflowNetwork but is not included in the AirflowNetwork.
   ** Warning ** CalcEquipmentFlowRates: "TOTAL HOT WATER LOAD" - Target water temperature is greater than the hot water temperature by (5.10 C)
   **   ~~~   **  Environment=EXTREME_WINTER, at Simulation time=12/22 06:00 - 06:15
   **   ~~~   ** ...target water temperature     = 53.33 C
   **   ~~~   ** ...hot water temperature        = 48.24 C
   **   ~~~   ** ...Target water temperature should be less than or equal to the hot water temperature. Verify temperature setpoints and schedules.
   ** Warning ** SimHVAC: Maximum iterations (20) exceeded for all HVAC loops, at EXTREME_WINTER, 12/29 10:45 - 11:00
   **   ~~~   ** The solution for one or more of the Air Loop HVAC systems did not appear to converge
   **   ~~~   ** Air System Named = CENTRAL SYSTEM did not converge for mass flow rate
   **   ~~~   ** Check values should be zero. Most Recent values listed first.
   **   ~~~   ** Demand-to-Supply interface mass flow rate check value iteration history trace: 6.569287E-002,6.569287E-002,6.569287E-002,6.569287E-002,6.569287E-002,6.569287E-002,6.569287E-002,6.569287E-002,6.569287E-002,6.569287E-002,
   **   ~~~   ** Supply-to-demand interface deck 1 mass flow rate check value iteration history trace: 6.569287E-002,6.569287E-002,6.569287E-002,6.569287E-002,6.569287E-002,6.569287E-002,6.569287E-002,6.569287E-002,6.569287E-002,6.569287E-002,
   **   ~~~   ** Air System Named = CENTRAL SYSTEM did not converge for energy
   **   ~~~   ** Check values should be zero. Most Recent values listed first.
   **   ~~~   ** Demand-to-Supply interface energy check value iteration history trace: 1301.801116,1301.801116,1301.801116,1301.801116,1301.801115,1301.801115,1301.801115,1301.801115,1301.801115,1301.801115,
   **   ~~~   ** Supply-to-demand interface deck 1 energy check value iteration history trace: 2198.810653,2198.810653,2198.810653,2198.810652,2198.810652,2198.810652,2198.810652,2198.810652,2198.810652,2198.810652,
   ** Warning ** SimHVAC: Maximum iterations (20) exceeded for all HVAC loops, at EXTREME_SUMMER, 07/05 04:30 - 04:45
   **   ~~~   ** The solution for one or more of the Air Loop HVAC systems did not appear to converge
   **   ~~~   ** Air System Named = CENTRAL SYSTEM did not converge for mass flow rate
   **   ~~~   ** Check values should be zero. Most Recent values listed first.
   **   ~~~   ** Demand-to-Supply interface mass flow rate check value iteration history trace: 0.112440,0.112440,0.112440,0.112440,0.112440,0.112440,0.112440,0.112440,0.112440,0.112440,
   **   ~~~   ** Supply-to-demand interface deck 1 mass flow rate check value iteration history trace: 0.112440,0.112440,0.112440,0.112440,0.112440,0.112440,0.112440,0.112440,0.112440,0.112440,
   **   ~~~   ** Air System Named = CENTRAL SYSTEM did not converge for energy
   **   ~~~   ** Check values should be zero. Most Recent values listed first.
   **   ~~~   ** Demand-to-Supply interface energy check value iteration history trace: 2815.213791,2815.213792,2815.213793,2815.213794,2815.213795,2815.213796,2815.213797,2815.213798,2815.213798,2815.213799,
   **   ~~~   ** Supply-to-demand interface deck 1 energy check value iteration history trace: 1495.497409,1495.497409,1495.497410,1495.497410,1495.497411,1495.497411,1495.497411,1495.497412,1495.497412,1495.497413,
   ** Warning ** SimHVAC: Maximum iterations (20) exceeded for all HVAC loops, at ANNUAL, 01/10 08:30 - 08:45
   **   ~~~   ** The solution for one or more of the Air Loop HVAC systems did not appear to converge
   **   ~~~   ** Air System Named = CENTRAL SYSTEM did not converge for mass flow rate
   **   ~~~   ** Check values should be zero. Most Recent values listed first.
   **   ~~~   ** Demand-to-Supply interface mass flow rate check value iteration history trace: 6.184208E-002,6.184208E-002,6.184208E-002,6.184208E-002,6.184208E-002,6.184208E-002,6.184208E-002,6.184208E-002,6.184208E-002,6.184208E-002,
   **   ~~~   ** Supply-to-demand interface deck 1 mass flow rate check value iteration history trace: 6.184208E-002,6.184208E-002,6.184208E-002,6.184208E-002,6.184208E-002,6.184208E-002,6.184208E-002,6.184208E-002,6.184208E-002,6.184208E-002,
   **   ~~~   ** Air System Named = CENTRAL SYSTEM did not converge for energy
   **   ~~~   ** Check values should be zero. Most Recent values listed first.
   **   ~~~   ** Demand-to-Supply interface energy check value iteration history trace: 1225.414544,1225.414544,1225.414544,1225.414544,1225.414544,1225.414544,1225.414544,1225.414544,1225.414544,1225.414544,
   **   ~~~   ** Supply-to-demand interface deck 1 energy check value iteration history trace: 2060.913174,2060.913174,2060.913174,2060.913173,2060.913173,2060.913173,2060.913173,2060.913173,2060.913173,2060.913173,
   ** Warning ** SimHVAC: Maximum iterations (20) exceeded for all HVAC loops, at ANNUAL, 01/11 08:30 - 08:38
   **   ~~~   ** The solution for one or more of the Air Loop HVAC systems did not appear to converge
   **   ~~~   ** Air System Named = CENTRAL SYSTEM did not converge for mass flow rate
   **   ~~~   ** Check values should be zero. Most Recent values listed first.
   **   ~~~   ** Demand-to-Supply interface mass flow rate check value iteration history trace: 6.620495E-002,6.620495E-002,6.620495E-002,6.620495E-002,6.620495E-002,6.620495E-002,6.620495E-002,6.620495E-002,6.620495E-002,6.620495E-002,
   **   ~~~   ** Supply-to-demand interface deck 1 mass flow rate check value iteration history trace: 6.620495E-002,6.620495E-002,6.620495E-002,6.620495E-002,6.620495E-002,6.620495E-002,6.620495E-002,6.620495E-002,6.620495E-002,6.620495E-002,
   **   ~~~   ** Air System Named = CENTRAL SYSTEM did not converge for energy
   **   ~~~   ** Check values should be zero. Most Recent values listed first.
   **   ~~~   ** Demand-to-Supply interface energy check value iteration history trace: 1311.867072,1311.867072,1311.867072,1311.867072,1311.867072,1311.867072,1311.867072,1311.867072,1311.867072,1311.867072,
   **   ~~~   ** Supply-to-demand interface deck 1 energy check value iteration history trace: 2208.167576,2208.167575,2208.167575,2208.167575,2208.167575,2208.167575,2208.167575,2208.167575,2208.167575,2208.167575,
   ** Warning ** SimHVAC: Maximum iterations (20) exceeded for all HVAC loops, at ANNUAL, 01/18 13:00 - 13:15
   **   ~~~   ** The solution for one or more of the Air Loop HVAC systems did not appear to converge
   **   ~~~   ** Air System Named = CENTRAL SYSTEM did not converge for mass flow rate
   **   ~~~   ** Check values should be zero. Most Recent values listed first.
   **   ~~~   ** Demand-to-Supply interface mass flow rate check value iteration history trace: 5.418938E-002,5.418938E-002,5.418938E-002,5.418938E-002,5.418938E-002,5.418938E-002,5.418938E-002,5.418938E-002,5.418938E-002,5.418938E-002,
   **   ~~~   ** Supply-to-demand interface deck 1 mass flow rate check value iteration history trace: 5.418938E-002,5.418938E-002,5.418938E-002,5.418938E-002,5.418938E-002,5.418938E-002,5.418938E-002,5.418938E-002,5.418938E-002,5.418938E-002,
   **   ~~~   ** Air System Named = CENTRAL SYSTEM did not converge for energy
   **   ~~~   ** Check values should be zero. Most Recent values listed first.
   **   ~~~   ** Demand-to-Supply interface energy check value iteration history trace: 1074.032464,1074.032464,1074.032464,1074.032464,1074.032464,1074.032464,1074.032464,1074.032464,1074.032464,1074.032464,
   **   ~~~   ** Supply-to-demand interface deck 1 energy check value iteration history trace: 1847.199608,1847.199608,1847.199608,1847.199608,1847.199608,1847.199608,1847.199608,1847.199608,1847.199608,1847.199608,
   ** Warning ** SimHVAC: Maximum iterations (20) exceeded for all HVAC loops, at ANNUAL, 01/21 10:00 - 10:15
   **   ~~~   ** The solution for one or more of the Air Loop HVAC systems did not appear to converge
   **   ~~~   ** Air System Named = CENTRAL SYSTEM did not converge for mass flow rate
   **   ~~~   ** Check values should be zero. Most Recent values listed first.
   **   ~~~   ** Demand-to-Supply interface mass flow rate check value iteration history trace: 7.052279E-002,7.052279E-002,7.052279E-002,7.052279E-002,7.052279E-002,7.052279E-002,7.052279E-002,7.052279E-002,7.052279E-002,7.052279E-002,
   **   ~~~   ** Supply-to-demand interface deck 1 mass flow rate check value iteration history trace: 7.052279E-002,7.052279E-002,7.052279E-002,7.052279E-002,7.052279E-002,7.052279E-002,7.052279E-002,7.052279E-002,7.052279E-002,7.052279E-002,
   **   ~~~   ** Air System Named = CENTRAL SYSTEM did not converge for energy
   **   ~~~   ** Check values should be zero. Most Recent values listed first.
   **   ~~~   ** Demand-to-Supply interface energy check value iteration history trace: 1397.534294,1397.534294,1397.534293,1397.534293,1397.534293,1397.534293,1397.534293,1397.534293,1397.534293,1397.534293,
   **   ~~~   ** Supply-to-demand interface deck 1 energy check value iteration history trace: 2330.023694,2330.023694,2330.023694,2330.023694,2330.023694,2330.023694,2330.023693,2330.023693,2330.023693,2330.023693,
   ** Warning ** SimHVAC: Maximum iterations (20) exceeded for all HVAC loops, at ANNUAL, 01/31 08:38 - 08:45
   **   ~~~   ** The solution for one or more of the Air Loop HVAC systems did not appear to converge
   **   ~~~   ** Air System Named = CENTRAL SYSTEM did not converge for mass flow rate
   **   ~~~   ** Check values should be zero. Most Recent values listed first.
   **   ~~~   ** Demand-to-Supply interface mass flow rate check value iteration history trace: 6.203808E-002,6.203808E-002,6.203808E-002,6.203808E-002,6.203808E-002,6.203808E-002,6.203808E-002,6.203808E-002,6.203808E-002,6.203808E-002,
   **   ~~~   ** Supply-to-demand interface deck 1 mass flow rate check value iteration history trace: 6.203808E-002,6.203808E-002,6.203808E-002,6.203808E-002,6.203808E-002,6.203808E-002,6.203808E-002,6.203808E-002,6.203808E-002,6.203808E-002,
   **   ~~~   ** Air System Named = CENTRAL SYSTEM did not converge for energy
   **   ~~~   ** Check values should be zero. Most Recent values listed first.
   **   ~~~   ** Demand-to-Supply interface energy check value iteration history trace: 1218.666579,1218.666579,1218.666579,1218.666579,1218.666579,1218.666579,1218.666579,1218.666579,1218.666579,1218.666579,
   **   ~~~   ** Supply-to-demand interface deck 1 energy check value iteration history trace: 2146.419583,2146.419583,2146.419583,2146.419583,2146.419583,2146.419583,2146.419583,2146.419583,2146.419582,2146.419582,
   ** Warning ** SimHVAC: Maximum iterations (20) exceeded for all HVAC loops, at ANNUAL, 02/03 09:45 - 09:47
   **   ~~~   ** The solution for one or more of the Air Loop HVAC systems did not appear to converge
   **   ~~~   ** Air System Named = CENTRAL SYSTEM did not converge for mass flow rate
   **   ~~~   ** Check values should be zero. Most Recent values listed first.
   **   ~~~   ** Demand-to-Supply interface mass flow rate check value iteration history trace: 6.855752E-002,6.855752E-002,6.855752E-002,6.855752E-002,6.855752E-002,6.855752E-002,6.855752E-002,6.855752E-002,6.855752E-002,6.855752E-002,
   **   ~~~   ** Supply-to-demand interface deck 1 mass flow rate check value iteration history trace: 6.855752E-002,6.855752E-002,6.855752E-002,6.855752E-002,6.855752E-002,6.855752E-002,6.855752E-002,6.855752E-002,6.855752E-002,6.855752E-002,
   **   ~~~   ** Air System Named = CENTRAL SYSTEM did not converge for energy
   **   ~~~   ** Check values should be zero. Most Recent values listed first.
   **   ~~~   ** Demand-to-Supply interface energy check value iteration history trace: 1354.430489,1354.430489,1354.430488,1354.430488,1354.430488,1354.430488,1354.430488,1354.430488,1354.430488,1354.430488,
   **   ~~~   ** Supply-to-demand interface deck 1 energy check value iteration history trace: 2314.801059,2314.801059,2314.801059,2314.801059,2314.801059,2314.801059,2314.801059,2314.801059,2314.801059,2314.801059,
   ** Warning ** SimHVAC: Maximum iterations (20) exceeded for all HVAC loops, at ANNUAL, 02/05 10:02 - 10:05
   **   ~~~   ** The solution for one or more of the Air Loop HVAC systems did not appear to converge
   **   ~~~   ** Air System Named = CENTRAL SYSTEM did not converge for mass flow rate
   **   ~~~   ** Check values should be zero. Most Recent values listed first.
   **   ~~~   ** Demand-to-Supply interface mass flow rate check value iteration history trace: 7.399962E-002,7.399962E-002,7.399962E-002,7.399962E-002,7.399962E-002,7.399962E-002,7.399962E-002,7.399962E-002,7.399962E-002,7.399962E-002,
   **   ~~~   ** Supply-to-demand interface deck 1 mass flow rate check value iteration history trace: 7.399962E-002,7.399962E-002,7.399962E-002,7.399962E-002,7.399962E-002,7.399962E-002,7.399962E-002,7.399962E-002,7.399962E-002,7.399962E-002,
   **   ~~~   ** Air System Named = CENTRAL SYSTEM did not converge for energy
   **   ~~~   ** Check values should be zero. Most Recent values listed first.
   **   ~~~   ** Demand-to-Supply interface energy check value iteration history trace: 1459.983564,1459.983564,1459.983564,1459.983564,1459.983564,1459.983563,1459.983563,1459.983563,1459.983563,1459.983563,
   **   ~~~   ** Supply-to-demand interface deck 1 energy check value iteration history trace: 2557.586884,2557.586884,2557.586883,2557.586883,2557.586883,2557.586883,2557.586883,2557.586883,2557.586883,2557.586883,
   ** Warning ** SimHVAC: Maximum iterations (20) exceeded for all HVAC loops, at ANNUAL, 02/08 08:15 - 08:22
   **   ~~~   ** The solution for one or more of the Air Loop HVAC systems did not appear to converge
   **   ~~~   ** Air System Named = CENTRAL SYSTEM did not converge for mass flow rate
   **   ~~~   ** Check values should be zero. Most Recent values listed first.
   **   ~~~   ** Demand-to-Supply interface mass flow rate check value iteration history trace: 6.394962E-002,6.394962E-002,6.394962E-002,6.394962E-002,6.394962E-002,6.394962E-002,6.394962E-002,6.394962E-002,6.394962E-002,6.394962E-002,
   **   ~~~   ** Supply-to-demand interface deck 1 mass flow rate check value iteration history trace: 6.394962E-002,6.394962E-002,6.394962E-002,6.394962E-002,6.394962E-002,6.394962E-002,6.394962E-002,6.394962E-002,6.394962E-002,6.394962E-002,
   **   ~~~   ** Air System Named = CENTRAL SYSTEM did not converge for energy
   **   ~~~   ** Check values should be zero. Most Recent values listed first.
   **   ~~~   ** Demand-to-Supply interface energy check value iteration history trace: 1267.209208,1267.209208,1267.209208,1267.209208,1267.209208,1267.209207,1267.209207,1267.209207,1267.209207,1267.209207,
   **   ~~~   ** Supply-to-demand interface deck 1 energy check value iteration history trace: 2164.364806,2164.364806,2164.364806,2164.364806,2164.364806,2164.364806,2164.364806,2164.364806,2164.364806,2164.364806,
   ** Warning ** SimHVAC: Maximum iterations (20) exceeded for all HVAC loops, at ANNUAL, 03/24 07:00 - 07:15
   **   ~~~   ** The solution for one or more of the Air Loop HVAC systems did not appear to converge
   **   ~~~   ** Air System Named = CENTRAL SYSTEM did not converge for mass flow rate
   **   ~~~   ** Check values should be zero. Most Recent values listed first.
   **   ~~~   ** Demand-to-Supply interface mass flow rate check value iteration history trace: 6.712440E-002,6.712440E-002,6.712440E-002,6.712440E-002,6.712440E-002,6.712440E-002,6.712440E-002,6.712440E-002,6.712440E-002,6.712440E-002,
   **   ~~~   ** Supply-to-demand interface deck 1 mass flow rate check value iteration history trace: 6.712440E-002,6.712440E-002,6.712440E-002,6.712440E-002,6.712440E-002,6.712440E-002,6.712440E-002,6.712440E-002,6.712440E-002,6.712440E-002,
   **   ~~~   ** Air System Named = CENTRAL SYSTEM did not converge for energy
   **   ~~~   ** Check values should be zero. Most Recent values listed first.
   **   ~~~   ** Demand-to-Supply interface energy check value iteration history trace: 1321.048468,1321.048467,1321.048467,1321.048467,1321.048467,1321.048467,1321.048467,1321.048467,1321.048467,1321.048467,
   **   ~~~   ** Supply-to-demand interface deck 1 energy check value iteration history trace: 2224.131192,2224.131192,2224.131192,2224.131192,2224.131192,2224.131192,2224.131192,2224.131192,2224.131191,2224.131191,
   ** Warning ** SimHVAC: Maximum iterations (20) exceeded for all HVAC loops, at ANNUAL, 04/29 09:10 - 09:12
   **   ~~~   ** The solution for one or more of the Air Loop HVAC systems did not appear to converge
   **   ~~~   ** Air System Named = CENTRAL SYSTEM did not converge for mass flow rate
   **   ~~~   ** Check values should be zero. Most Recent values listed first.
   **   ~~~   ** Demand-to-Supply interface mass flow rate check value iteration history trace: 0.115044,0.115044,0.115044,0.115044,0.115044,0.115044,0.115044,0.115044,0.115044,0.115044,
   **   ~~~   ** Supply-to-demand interface deck 1 mass flow rate check value iteration history trace: 0.115044,0.115044,0.115044,0.115044,0.115044,0.115044,0.115044,0.115044,0.115044,0.115044,
   **   ~~~   ** Air System Named = CENTRAL SYSTEM did not converge for energy
   **   ~~~   ** Check values should be zero. Most Recent values listed first.
   **   ~~~   ** Demand-to-Supply interface energy check value iteration history trace: 2713.974116,2713.974116,2713.974117,2713.974117,2713.974117,2713.974117,2713.974117,2713.974117,2713.974118,2713.974118,
   **   ~~~   ** Supply-to-demand interface deck 1 energy check value iteration history trace: 1311.456991,1311.456991,1311.456992,1311.456992,1311.456992,1311.456992,1311.456992,1311.456992,1311.456992,1311.456992,
   ** Warning ** SimHVAC: Maximum iterations (20) exceeded for all HVAC loops, at ANNUAL, 11/14 06:25 - 06:30
   **   ~~~   ** The solution for one or more of the Air Loop HVAC systems did not appear to converge
   **   ~~~   ** Air System Named = CENTRAL SYSTEM did not converge for mass flow rate
   **   ~~~   ** Check values should be zero. Most Recent values listed first.
   **   ~~~   ** Demand-to-Supply interface mass flow rate check value iteration history trace: 6.543131E-002,6.543131E-002,6.543131E-002,6.543131E-002,6.543131E-002,6.543131E-002,6.543131E-002,6.543131E-002,6.543131E-002,6.543131E-002,
   **   ~~~   ** Supply-to-demand interface deck 1 mass flow rate check value iteration history trace: 6.543131E-002,6.543131E-002,6.543131E-002,6.543131E-002,6.543131E-002,6.543131E-002,6.543131E-002,6.543131E-002,6.543131E-002,6.543131E-002,
   **   ~~~   ** Air System Named = CENTRAL SYSTEM did not converge for energy
   **   ~~~   ** Check values should be zero. Most Recent values listed first.
   **   ~~~   ** Demand-to-Supply interface energy check value iteration history trace: 1299.028189,1299.028189,1299.028189,1299.028189,1299.028189,1299.028189,1299.028189,1299.028189,1299.028189,1299.028189,
   **   ~~~   ** Supply-to-demand interface deck 1 energy check value iteration history trace: 2182.120793,2182.120793,2182.120793,2182.120793,2182.120793,2182.120793,2182.120793,2182.120793,2182.120793,2182.120792,
   ** Warning ** SimHVAC: Maximum iterations (20) exceeded for all HVAC loops, at ANNUAL, 11/22 06:15 - 06:30
   **   ~~~   ** The solution for one or more of the Air Loop HVAC systems did not appear to converge
   **   ~~~   ** Air System Named = CENTRAL SYSTEM did not converge for mass flow rate
   **   ~~~   ** Check values should be zero. Most Recent values listed first.
   **   ~~~   ** Demand-to-Supply interface mass flow rate check value iteration history trace: 6.986878E-002,6.986878E-002,6.986878E-002,6.986878E-002,6.986878E-002,6.986878E-002,6.986878E-002,6.986878E-002,6.986878E-002,6.986878E-002,
   **   ~~~   ** Supply-to-demand interface deck 1 mass flow rate check value iteration history trace: 6.986878E-002,6.986878E-002,6.986878E-002,6.986878E-002,6.986878E-002,6.986878E-002,6.986878E-002,6.986878E-002,6.986878E-002,6.986878E-002,
   **   ~~~   ** Air System Named = CENTRAL SYSTEM did not converge for energy
   **   ~~~   ** Check values should be zero. Most Recent values listed first.
   **   ~~~   ** Demand-to-Supply interface energy check value iteration history trace: 1384.701844,1384.701843,1384.701843,1384.701843,1384.701843,1384.701843,1384.701843,1384.701843,1384.701843,1384.701843,
   **   ~~~   ** Supply-to-demand interface deck 1 energy check value iteration history trace: 2317.947076,2317.947076,2317.947075,2317.947075,2317.947075,2317.947075,2317.947075,2317.947075,2317.947075,2317.947075,
   ************* Simulation Error Summary *************
   ** Warning ** The following Report Variables were requested but not generated -- check.rdd file
   **   ~~~   ** Either the IDF did not contain these elements, the variable name is misspelled,
   **   ~~~   ** or the requested variable is an advanced output which requires Output : Diagnostics, DisplayAdvancedReportVariables;
   ************* Key=*, VarName=BASEBOARD TOTAL HEATING ENERGY, Frequency=
   ************* Key=*, VarName=WATER HEATER NATURALGAS ENERGY, Frequency=
   ************* Key=*, VarName=COOLING COIL TOTAL HEATING ENERGY, Frequency=
   ************* There are 34 unused schedules in input.
   ************* There are 388 unused week schedules in input.
   ************* There are 396 unused day schedules in input.
   ************* Use Output:Diagnostics,DisplayUnusedSchedules; to see them.
   *************
   ************* ===== Recurring Error Summary =====
   ************* The following recurring error messages occurred.
   *************
   *************  ** Warning ** "TOTAL HOT WATER LOAD" - Target water temperature should be less than or equal to the hot water temperature error continues...
   *************  **   ~~~   **   This error occurred 157791 total times;
   *************  **   ~~~   **   during Warmup 0 times;
   *************  **   ~~~   **   during Sizing 0 times.
   *************  **   ~~~   **   Max=10.903418  Min=1.148477E-004
   *************
   *************  ** Warning ** SimHVAC: Exceeding Maximum iterations for all HVAC loops, during ANNUAL continues
   *************  **   ~~~   **   This error occurred 7 total times;
   *************  **   ~~~   **   during Warmup 0 times;
   *************  **   ~~~   **   during Sizing 0 times.
   *************
   *************
   ************* ===== Final Error Summary =====
   ************* The following error categories occurred.  Consider correcting or noting.
   ************* Nominally Unused Constructions
   ************* ..The nominally unused constructions warning is provided to alert you to potential conditions that can cause
   ************* ..extra time during simulation. Each construction is calculated by the algorithm indicated in the HeatBalanceAlgorithm
   ************* ..object. You may remove the constructions indicated (when you use the DisplayExtraWarnings option).
   *************
   ************* EnergyPlus Warmup Error Summary. During Warmup: 1 Warning; 0 Severe Errors.
   ************* EnergyPlus Sizing Error Summary. During Sizing: 4 Warning; 0 Severe Errors.
   ************* EnergyPlus Completed Successfully-- 157829 Warning; 0 Severe Errors; Elapsed Time=00hr 01min 47.58sec
