Program Version,EnergyPlus, Version 22.2.0-c249759bad, YMD=2023.09.01 17:30,
   ************* Beginning Zone Sizing Calculations
   ** Warning ** ProcessScheduleInput: Schedule:Constant="ALWAYS ON DISCRETE", Schedule Type Limits Name="ONOFF" not found -- will not be validated
   ** Warning ** Foundation:Kiva="KIVA FOUNDATION", no Interior Horizontal Insulation Material Name defined
   **   ~~~   ** Interior Horizontal Insulation Depth will not be used.
   ** Warning ** CheckUsedConstructions: There are 15 nominally unused constructions in input.
   **   ~~~   ** Each Unused construction is shown.
   ************* Construction=INTERIOR FLOOR
   ************* Construction=INTERIOR WINDOW
   ************* Construction=EXTERIOR DOOR
   ************* Construction=INTERIOR DOOR
   ************* Construction=GABLE CONSTRUCTION
   ************* Construction=CRAWL_FLOOR
   ************* Construction=INSULATED PIPE
   ************* Construction=PLAIN PIPE
   ************* Construction=TDD PIPE
   ************* Construction=TDD DOME
   ************* Construction=TDD DIFFUSER
   ************* Construction=CRAWL WALL
   ************* Construction=CEILING-FLOOR-LAYER
   ************* Construction=SLAB CONSTRUCTION W FULL R10 INSULATION
   ************* Construction=SLAB CONSTRUCTION W FULL R5 INSULATION
   ** Warning ** GetDXCoils: Coil:Heating:DX:SingleSpeed="DX_HEATING_COIL" curve values
   **   ~~~   ** ... Defrost Energy Input Ratio Function of Temperature Curve Name = DEFROSTEIR output is not equal to 1.0 (+ or - 10%) at rated conditions.
   **   ~~~   ** ... Curve output at rated conditions = 0.152
   ************* Beginning System Sizing Calculations
   ************* Beginning Plant Sizing Calculations
   ** Warning ** Coil:WaterHeating:AirToWaterHeatPump:Wrapped "HEAT PUMP WATER HEATER EVAPORATOR": Rated air volume flow rate per watt of rated total water heating capacity is out of range
   **   ~~~   ** Min Rated Vol Flow Per Watt=[4.027E-005], Rated Vol Flow Per Watt=[1.510E-004], Max Rated Vol Flow Per Watt=[8.056E-005]. See Input-Output Reference Manual for valid range.
   ************* SizeFan: : Potential issue with equipment sizing for Fan:OnOff HEAT PUMP WATER HEATER FAN
   **   ~~~   ** User-Specified Maximum Flow Rate [m3/s] = 0.22653
   **   ~~~   ** differs from Design Size Maximum Flow Rate [m3/s] = 7.55250E-002
   **   ~~~   ** This may, or may not, indicate mismatched component sizes.
   **   ~~~   ** Verify that the value entered is intended and is consistent with other components.
   ** Warning ** Water heater = WATER HEATER TANK:  Recovery Efficiency and Energy Factor could not be calculated during the test for standard ratings
   **   ~~~   ** Setpoint was never recovered and/or heater never turned on
   ** Warning ** Check input. Pump nominal power or motor efficiency is set to 0, for pump=MAINS PRESSURE
   ** Warning ** Output:Meter: invalid Key Name="ELECTRIC_RANGE:INTERIOREQUIPMENT:ELECTRICITY" - not found.
   ** Warning ** Output:Meter: invalid Key Name="ELECTRIC_DRYER:INTERIOREQUIPMENT:ELECTRICITY" - not found.
   ** Warning ** Output:Meter: invalid Key Name="HEATRECOVERY:ELECTRICITY" - not found.
   ** Warning ** Output:Meter: invalid Key Name="HEATING:NATURALGAS" - not found.
   ** Warning ** Output:Meter: invalid Key Name="WATERSYSTEMS:NATURALGAS" - not found.
   ** Warning ** Output:Meter: invalid Key Name="PROPANE:FACILITY" - not found.
   ** Warning ** Output:Meter: invalid Key Name="HEATING:PROPANE" - not found.
   ************* Testing Individual Branch Integrity
   ************* All Branches passed integrity testing
   ************* Testing Individual Supply Air Path Integrity
   ************* All Supply Air Paths passed integrity testing
   ************* Testing Individual Return Air Path Integrity
   ************* All Return Air Paths passed integrity testing
   ************* No node connection errors were found.
   ************* Beginning Simulation
   ** Warning ** AirflowNetwork::Solver::validate_distribution: Heat pump water heater is simulated along with an AirflowNetwork but is not included in the AirflowNetwork.
   ** Warning ** CalcEquipmentFlowRates: "TOTAL HOT WATER LOAD" - Target water temperature is greater than the hot water temperature by (0.75 C)
   **   ~~~   **  Environment=EXTREME_WINTER, at Simulation time=02/03 06:00 - 06:15
   **   ~~~   ** ...target water temperature     = 53.33 C
   **   ~~~   ** ...hot water temperature        = 52.59 C
   **   ~~~   ** ...Target water temperature should be less than or equal to the hot water temperature. Verify temperature setpoints and schedules.
   ** Warning ** SimHVAC: Maximum iterations (20) exceeded for all HVAC loops, at ANNUAL, 01/15 19:15 - 19:30
   **   ~~~   ** The solution for one or more of the Air Loop HVAC systems did not appear to converge
   **   ~~~   ** Air System Named = CENTRAL SYSTEM did not converge for mass flow rate
   **   ~~~   ** Check values should be zero. Most Recent values listed first.
   **   ~~~   ** Demand-to-Supply interface mass flow rate check value iteration history trace: 6.990001E-002,6.990001E-002,6.990001E-002,6.990001E-002,6.990001E-002,6.990001E-002,6.990001E-002,6.990001E-002,6.990001E-002,6.990001E-002,
   **   ~~~   ** Supply-to-demand interface deck 1 mass flow rate check value iteration history trace: 6.990001E-002,6.990001E-002,6.990001E-002,6.990001E-002,6.990001E-002,6.990001E-002,6.990001E-002,6.990001E-002,6.990001E-002,6.990001E-002,
   **   ~~~   ** Air System Named = CENTRAL SYSTEM did not converge for energy
   **   ~~~   ** Check values should be zero. Most Recent values listed first.
   **   ~~~   ** Demand-to-Supply interface energy check value iteration history trace: 1372.101847,1372.101847,1372.101847,1372.101847,1372.101847,1372.101847,1372.101847,1372.101847,1372.101847,1372.101847,
   **   ~~~   ** Supply-to-demand interface deck 1 energy check value iteration history trace: 2501.579030,2501.579030,2501.579030,2501.579030,2501.579030,2501.579030,2501.579029,2501.579029,2501.579029,2501.579029,
   ** Warning ** SimHVAC: Maximum iterations (20) exceeded for all HVAC loops, at ANNUAL, 01/15 22:45 - 23:00
   **   ~~~   ** The solution for one or more of the Air Loop HVAC systems did not appear to converge
   **   ~~~   ** Air System Named = CENTRAL SYSTEM did not converge for mass flow rate
   **   ~~~   ** Check values should be zero. Most Recent values listed first.
   **   ~~~   ** Demand-to-Supply interface mass flow rate check value iteration history trace: 5.284073E-002,5.284073E-002,5.284073E-002,5.284073E-002,5.284073E-002,5.284073E-002,5.284073E-002,5.284073E-002,5.284073E-002,5.284073E-002,
   **   ~~~   ** Supply-to-demand interface deck 1 mass flow rate check value iteration history trace: 5.284073E-002,5.284073E-002,5.284073E-002,5.284073E-002,5.284073E-002,5.284073E-002,5.284073E-002,5.284073E-002,5.284073E-002,5.284073E-002,
   **   ~~~   ** Air System Named = CENTRAL SYSTEM did not converge for energy
   **   ~~~   ** Check values should be zero. Most Recent values listed first.
   **   ~~~   ** Demand-to-Supply interface energy check value iteration history trace: 988.502631,988.502631,988.502631,988.502631,988.502631,988.502631,988.502631,988.502631,988.502631,988.502631,
   **   ~~~   ** Supply-to-demand interface deck 1 energy check value iteration history trace: 1823.033177,1823.033177,1823.033177,1823.033177,1823.033177,1823.033177,1823.033177,1823.033177,1823.033177,1823.033177,
   ** Warning ** SimHVAC: Maximum iterations (20) exceeded for all HVAC loops, at ANNUAL, 02/13 18:20 - 18:25
   **   ~~~   ** The solution for one or more of the Air Loop HVAC systems did not appear to converge
   **   ~~~   ** Air System Named = CENTRAL SYSTEM did not converge for mass flow rate
   **   ~~~   ** Check values should be zero. Most Recent values listed first.
   **   ~~~   ** Demand-to-Supply interface mass flow rate check value iteration history trace: 8.470302E-002,8.470302E-002,8.470302E-002,8.470302E-002,8.470302E-002,8.470302E-002,8.470302E-002,8.470302E-002,8.470302E-002,8.470302E-002,
   **   ~~~   ** Supply-to-demand interface deck 1 mass flow rate check value iteration history trace: 8.470302E-002,8.470302E-002,8.470302E-002,8.470302E-002,8.470302E-002,8.470302E-002,8.470302E-002,8.470302E-002,8.470302E-002,8.470302E-002,
   **   ~~~   ** Air System Named = CENTRAL SYSTEM did not converge for energy
   **   ~~~   ** Check values should be zero. Most Recent values listed first.
   **   ~~~   ** Demand-to-Supply interface energy check value iteration history trace: 1677.926353,1677.926353,1677.926353,1677.926353,1677.926353,1677.926353,1677.926353,1677.926352,1677.926352,1677.926352,
   **   ~~~   ** Supply-to-demand interface deck 1 energy check value iteration history trace: 2626.348617,2626.348617,2626.348616,2626.348616,2626.348616,2626.348616,2626.348616,2626.348616,2626.348615,2626.348615,
   ** Warning ** SimHVAC: Maximum iterations (20) exceeded for all HVAC loops, at ANNUAL, 03/12 13:45 - 13:52
   **   ~~~   ** The solution for one or more of the Air Loop HVAC systems did not appear to converge
   **   ~~~   ** Air System Named = CENTRAL SYSTEM did not converge for mass flow rate
   **   ~~~   ** Check values should be zero. Most Recent values listed first.
   **   ~~~   ** Demand-to-Supply interface mass flow rate check value iteration history trace: 4.545556E-002,4.545556E-002,4.545556E-002,4.545556E-002,4.545556E-002,4.545556E-002,4.545556E-002,4.545556E-002,4.545556E-002,4.545556E-002,
   **   ~~~   ** Supply-to-demand interface deck 1 mass flow rate check value iteration history trace: 4.545556E-002,4.545556E-002,4.545556E-002,4.545556E-002,4.545556E-002,4.545556E-002,4.545556E-002,4.545556E-002,4.545556E-002,4.545556E-002,
   **   ~~~   ** Air System Named = CENTRAL SYSTEM did not converge for energy
   **   ~~~   ** Check values should be zero. Most Recent values listed first.
   **   ~~~   ** Demand-to-Supply interface energy check value iteration history trace: 899.468674,899.468674,899.468674,899.468673,899.468673,899.468673,899.468673,899.468673,899.468673,899.468673,
   **   ~~~   ** Supply-to-demand interface deck 1 energy check value iteration history trace: 1636.016504,1636.016503,1636.016503,1636.016503,1636.016503,1636.016503,1636.016503,1636.016503,1636.016503,1636.016503,
   ** Warning ** SimHVAC: Maximum iterations (20) exceeded for all HVAC loops, at ANNUAL, 03/14 20:30 - 20:38
   **   ~~~   ** The solution for one or more of the Air Loop HVAC systems did not appear to converge
   **   ~~~   ** Air System Named = CENTRAL SYSTEM did not converge for mass flow rate
   **   ~~~   ** Check values should be zero. Most Recent values listed first.
   **   ~~~   ** Demand-to-Supply interface mass flow rate check value iteration history trace: 5.009240E-002,5.009240E-002,5.009240E-002,5.009240E-002,5.009240E-002,5.009240E-002,5.009240E-002,5.009240E-002,5.009240E-002,5.009240E-002,
   **   ~~~   ** Supply-to-demand interface deck 1 mass flow rate check value iteration history trace: 5.009240E-002,5.009240E-002,5.009240E-002,5.009240E-002,5.009240E-002,5.009240E-002,5.009240E-002,5.009240E-002,5.009240E-002,5.009240E-002,
   **   ~~~   ** Air System Named = CENTRAL SYSTEM did not converge for energy
   **   ~~~   ** Check values should be zero. Most Recent values listed first.
   **   ~~~   ** Demand-to-Supply interface energy check value iteration history trace: 991.697519,991.697519,991.697519,991.697519,991.697519,991.697519,991.697519,991.697519,991.697519,991.697519,
   **   ~~~   ** Supply-to-demand interface deck 1 energy check value iteration history trace: 1847.428746,1847.428746,1847.428746,1847.428746,1847.428746,1847.428746,1847.428746,1847.428746,1847.428746,1847.428746,
   ** Warning ** SimHVAC: Maximum iterations (20) exceeded for all HVAC loops, at ANNUAL, 03/18 17:15 - 17:30
   **   ~~~   ** The solution for one or more of the Air Loop HVAC systems did not appear to converge
   **   ~~~   ** Air System Named = CENTRAL SYSTEM did not converge for mass flow rate
   **   ~~~   ** Check values should be zero. Most Recent values listed first.
   **   ~~~   ** Demand-to-Supply interface mass flow rate check value iteration history trace: 4.238764E-002,4.238764E-002,4.238764E-002,4.238764E-002,4.238764E-002,4.238764E-002,4.238764E-002,4.238764E-002,4.238764E-002,4.238764E-002,
   **   ~~~   ** Supply-to-demand interface deck 1 mass flow rate check value iteration history trace: 4.238764E-002,4.238764E-002,4.238764E-002,4.238764E-002,4.238764E-002,4.238764E-002,4.238764E-002,4.238764E-002,4.238764E-002,4.238764E-002,
   **   ~~~   ** Air System Named = CENTRAL SYSTEM did not converge for energy
   **   ~~~   ** Check values should be zero. Most Recent values listed first.
   **   ~~~   ** Demand-to-Supply interface energy check value iteration history trace: 831.486129,831.486129,831.486129,831.486129,831.486129,831.486129,831.486129,831.486129,831.486129,831.486129,
   **   ~~~   ** Supply-to-demand interface deck 1 energy check value iteration history trace: 1345.014611,1345.014611,1345.014611,1345.014611,1345.014611,1345.014611,1345.014610,1345.014610,1345.014610,1345.014610,
   ** Warning ** SimHVAC: Maximum iterations (20) exceeded for all HVAC loops, at ANNUAL, 03/20 18:30 - 18:45
   **   ~~~   ** The solution for one or more of the Air Loop HVAC systems did not appear to converge
   **   ~~~   ** Air System Named = CENTRAL SYSTEM did not converge for mass flow rate
   **   ~~~   ** Check values should be zero. Most Recent values listed first.
   **   ~~~   ** Demand-to-Supply interface mass flow rate check value iteration history trace: 8.214484E-002,8.214484E-002,8.214484E-002,8.214484E-002,8.214484E-002,8.214484E-002,8.214484E-002,8.214484E-002,8.214484E-002,8.214484E-002,
   **   ~~~   ** Supply-to-demand interface deck 1 mass flow rate check value iteration history trace: 8.214484E-002,8.214484E-002,8.214484E-002,8.214484E-002,8.214484E-002,8.214484E-002,8.214484E-002,8.214484E-002,8.214484E-002,8.214484E-002,
   **   ~~~   ** Air System Named = CENTRAL SYSTEM did not converge for energy
   **   ~~~   ** Check values should be zero. Most Recent values listed first.
   **   ~~~   ** Demand-to-Supply interface energy check value iteration history trace: 1624.378928,1624.378928,1624.378928,1624.378927,1624.378927,1624.378927,1624.378927,1624.378927,1624.378927,1624.378927,
   **   ~~~   ** Supply-to-demand interface deck 1 energy check value iteration history trace: 2514.518365,2514.518365,2514.518365,2514.518365,2514.518365,2514.518365,2514.518364,2514.518364,2514.518364,2514.518364,
   ** Warning ** SimHVAC: Maximum iterations (20) exceeded for all HVAC loops, at ANNUAL, 04/10 02:30 - 02:45
   **   ~~~   ** The solution for one or more of the Air Loop HVAC systems did not appear to converge
   **   ~~~   ** Air System Named = CENTRAL SYSTEM did not converge for mass flow rate
   **   ~~~   ** Check values should be zero. Most Recent values listed first.
   **   ~~~   ** Demand-to-Supply interface mass flow rate check value iteration history trace: 4.497007E-002,4.497007E-002,4.497007E-002,4.497007E-002,4.497007E-002,4.497007E-002,4.497007E-002,4.497007E-002,4.497007E-002,4.497007E-002,
   **   ~~~   ** Supply-to-demand interface deck 1 mass flow rate check value iteration history trace: 4.497007E-002,4.497007E-002,4.497007E-002,4.497007E-002,4.497007E-002,4.497007E-002,4.497007E-002,4.497007E-002,4.497007E-002,4.497007E-002,
   **   ~~~   ** Air System Named = CENTRAL SYSTEM did not converge for energy
   **   ~~~   ** Check values should be zero. Most Recent values listed first.
   **   ~~~   ** Demand-to-Supply interface energy check value iteration history trace: 835.747318,835.747318,835.747318,835.747318,835.747318,835.747318,835.747318,835.747318,835.747318,835.747318,
   **   ~~~   ** Supply-to-demand interface deck 1 energy check value iteration history trace: 1582.628333,1582.628333,1582.628333,1582.628333,1582.628333,1582.628333,1582.628333,1582.628333,1582.628333,1582.628333,
   ** Warning ** SimHVAC: Maximum iterations (20) exceeded for all HVAC loops, at ANNUAL, 04/17 07:45 - 08:00
   **   ~~~   ** The solution for one or more of the Air Loop HVAC systems did not appear to converge
   **   ~~~   ** Air System Named = CENTRAL SYSTEM did not converge for mass flow rate
   **   ~~~   ** Check values should be zero. Most Recent values listed first.
   **   ~~~   ** Demand-to-Supply interface mass flow rate check value iteration history trace: 6.148085E-002,6.148085E-002,6.148085E-002,6.148085E-002,6.148085E-002,6.148085E-002,6.148085E-002,6.148085E-002,6.148085E-002,6.148085E-002,
   **   ~~~   ** Supply-to-demand interface deck 1 mass flow rate check value iteration history trace: 6.148085E-002,6.148085E-002,6.148085E-002,6.148085E-002,6.148085E-002,6.148085E-002,6.148085E-002,6.148085E-002,6.148085E-002,6.148085E-002,
   **   ~~~   ** Air System Named = CENTRAL SYSTEM did not converge for energy
   **   ~~~   ** Check values should be zero. Most Recent values listed first.
   **   ~~~   ** Demand-to-Supply interface energy check value iteration history trace: 1218.333451,1218.333451,1218.333451,1218.333451,1218.333451,1218.333451,1218.333451,1218.333451,1218.333451,1218.333451,
   **   ~~~   ** Supply-to-demand interface deck 1 energy check value iteration history trace: 2183.280242,2183.280242,2183.280242,2183.280242,2183.280241,2183.280241,2183.280241,2183.280241,2183.280241,2183.280241,
   ** Warning ** SimHVAC: Maximum iterations (20) exceeded for all HVAC loops, at ANNUAL, 04/17 07:45 - 07:48
   **   ~~~   ** The solution for one or more of the Air Loop HVAC systems did not appear to converge
   **   ~~~   ** Air System Named = CENTRAL SYSTEM did not converge for mass flow rate
   **   ~~~   ** Check values should be zero. Most Recent values listed first.
   **   ~~~   ** Demand-to-Supply interface mass flow rate check value iteration history trace: 6.197463E-002,6.197463E-002,6.197463E-002,6.197463E-002,6.197463E-002,6.197463E-002,6.197463E-002,6.197463E-002,6.197463E-002,6.197463E-002,
   **   ~~~   ** Supply-to-demand interface deck 1 mass flow rate check value iteration history trace: 6.197463E-002,6.197463E-002,6.197463E-002,6.197463E-002,6.197463E-002,6.197463E-002,6.197463E-002,6.197463E-002,6.197463E-002,6.197463E-002,
   **   ~~~   ** Air System Named = CENTRAL SYSTEM did not converge for energy
   **   ~~~   ** Check values should be zero. Most Recent values listed first.
   **   ~~~   ** Demand-to-Supply interface energy check value iteration history trace: 1228.126486,1228.126486,1228.126486,1228.126486,1228.126486,1228.126486,1228.126486,1228.126486,1228.126486,1228.126486,
   **   ~~~   ** Supply-to-demand interface deck 1 energy check value iteration history trace: 2200.770893,2200.770893,2200.770893,2200.770893,2200.770892,2200.770892,2200.770892,2200.770892,2200.770892,2200.770892,
   ** Warning ** SimHVAC: Maximum iterations (20) exceeded for all HVAC loops, at ANNUAL, 05/28 22:23 - 22:30
   **   ~~~   ** The solution for one or more of the Air Loop HVAC systems did not appear to converge
   **   ~~~   ** Air System Named = CENTRAL SYSTEM did not converge for mass flow rate
   **   ~~~   ** Check values should be zero. Most Recent values listed first.
   **   ~~~   ** Demand-to-Supply interface mass flow rate check value iteration history trace: 1.595089E-002,1.595089E-002,1.595089E-002,1.595089E-002,1.595089E-002,1.595089E-002,1.595089E-002,1.595089E-002,1.595089E-002,1.595089E-002,
   **   ~~~   ** Supply-to-demand interface deck 1 mass flow rate check value iteration history trace: 1.595089E-002,1.595089E-002,1.595089E-002,1.595089E-002,1.595089E-002,1.595089E-002,1.595089E-002,1.595089E-002,1.595089E-002,1.595089E-002,
   **   ~~~   ** Air System Named = CENTRAL SYSTEM did not converge for energy
   **   ~~~   ** Check values should be zero. Most Recent values listed first.
   **   ~~~   ** Demand-to-Supply interface energy check value iteration history trace: 390.980670,390.980670,390.980670,390.980670,390.980670,390.980670,390.980670,390.980670,390.980670,390.980670,
   **   ~~~   ** Supply-to-demand interface deck 1 energy check value iteration history trace: 144.919914,144.919914,144.919914,144.919914,144.919914,144.919914,144.919914,144.919914,144.919915,144.919915,
   ** Warning ** SimHVAC: Maximum iterations (20) exceeded for all HVAC loops, at ANNUAL, 05/29 07:25 - 07:28
   **   ~~~   ** The solution for one or more of the Air Loop HVAC systems did not appear to converge
   **   ~~~   ** Air System Named = CENTRAL SYSTEM did not converge for mass flow rate
   **   ~~~   ** Check values should be zero. Most Recent values listed first.
   **   ~~~   ** Demand-to-Supply interface mass flow rate check value iteration history trace: 0.164772,0.164772,0.164772,0.164772,0.164772,0.164772,0.164772,0.164772,0.164772,0.164772,
   **   ~~~   ** Supply-to-demand interface deck 1 mass flow rate check value iteration history trace: 0.164772,0.164772,0.164772,0.164772,0.164772,0.164772,0.164772,0.164772,0.164772,0.164772,
   **   ~~~   ** Air System Named = CENTRAL SYSTEM did not converge for energy
   **   ~~~   ** Check values should be zero. Most Recent values listed first.
   **   ~~~   ** Demand-to-Supply interface energy check value iteration history trace: 3906.298715,3906.298716,3906.298717,3906.298718,3906.298718,3906.298719,3906.298720,3906.298721,3906.298722,3906.298722,
   **   ~~~   ** Supply-to-demand interface deck 1 energy check value iteration history trace: 1722.130457,1722.130458,1722.130458,1722.130458,1722.130459,1722.130459,1722.130459,1722.130460,1722.130460,1722.130460,
   ** Warning ** SimHVAC: Maximum iterations (20) exceeded for all HVAC loops, at ANNUAL, 06/10 11:15 - 11:30
   **   ~~~   ** The solution for one or more of the Air Loop HVAC systems did not appear to converge
   **   ~~~   ** Air System Named = CENTRAL SYSTEM did not converge for mass flow rate
   **   ~~~   ** Check values should be zero. Most Recent values listed first.
   **   ~~~   ** Demand-to-Supply interface mass flow rate check value iteration history trace: 8.617454E-002,8.617454E-002,8.617454E-002,8.617454E-002,8.617454E-002,8.617454E-002,8.617454E-002,8.617454E-002,8.617454E-002,8.617454E-002,
   **   ~~~   ** Supply-to-demand interface deck 1 mass flow rate check value iteration history trace: 8.617454E-002,8.617454E-002,8.617454E-002,8.617454E-002,8.617454E-002,8.617454E-002,8.617454E-002,8.617454E-002,8.617454E-002,8.617454E-002,
   **   ~~~   ** Air System Named = CENTRAL SYSTEM did not converge for energy
   **   ~~~   ** Check values should be zero. Most Recent values listed first.
   **   ~~~   ** Demand-to-Supply interface energy check value iteration history trace: 2025.680210,2025.680210,2025.680210,2025.680210,2025.680210,2025.680210,2025.680210,2025.680210,2025.680211,2025.680211,
   **   ~~~   ** Supply-to-demand interface deck 1 energy check value iteration history trace: 926.528179,926.528179,926.528179,926.528180,926.528180,926.528180,926.528180,926.528180,926.528180,926.528180,
   ** Warning ** SimHVAC: Maximum iterations (20) exceeded for all HVAC loops, at ANNUAL, 09/19 08:00 - 08:04
   **   ~~~   ** The solution for one or more of the Air Loop HVAC systems did not appear to converge
   **   ~~~   ** Air System Named = CENTRAL SYSTEM did not converge for mass flow rate
   **   ~~~   ** Check values should be zero. Most Recent values listed first.
   **   ~~~   ** Demand-to-Supply interface mass flow rate check value iteration history trace: 5.938756E-002,5.938756E-002,5.938756E-002,5.938756E-002,5.938756E-002,5.938756E-002,5.938756E-002,5.938756E-002,5.938756E-002,5.938756E-002,
   **   ~~~   ** Supply-to-demand interface deck 1 mass flow rate check value iteration history trace: 5.938756E-002,5.938756E-002,5.938756E-002,5.938756E-002,5.938756E-002,5.938756E-002,5.938756E-002,5.938756E-002,5.938756E-002,5.938756E-002,
   **   ~~~   ** Air System Named = CENTRAL SYSTEM did not converge for energy
   **   ~~~   ** Check values should be zero. Most Recent values listed first.
   **   ~~~   ** Demand-to-Supply interface energy check value iteration history trace: 1168.794660,1168.794659,1168.794659,1168.794659,1168.794659,1168.794659,1168.794659,1168.794659,1168.794659,1168.794659,
   **   ~~~   ** Supply-to-demand interface deck 1 energy check value iteration history trace: 2134.373064,2134.373064,2134.373064,2134.373064,2134.373064,2134.373064,2134.373064,2134.373063,2134.373063,2134.373063,
   ************* Simulation Error Summary *************
   ** Warning ** The following Report Variables were requested but not generated -- check.rdd file
   **   ~~~   ** Either the IDF did not contain these elements, the variable name is misspelled,
   **   ~~~   ** or the requested variable is an advanced output which requires Output : Diagnostics, DisplayAdvancedReportVariables;
   ************* Key=*, VarName=BASEBOARD TOTAL HEATING ENERGY, Frequency=
   ************* Key=*, VarName=WATER HEATER NATURALGAS ENERGY, Frequency=
   ************* Key=*, VarName=COOLING COIL TOTAL HEATING ENERGY, Frequency=
   ************* There are 34 unused schedules in input.
   ************* There are 388 unused week schedules in input.
   ************* There are 396 unused day schedules in input.
   ************* Use Output:Diagnostics,DisplayUnusedSchedules; to see them.
   *************
   ************* ===== Recurring Error Summary =====
   ************* The following recurring error messages occurred.
   *************
   *************  ** Warning ** "TOTAL HOT WATER LOAD" - Target water temperature should be less than or equal to the hot water temperature error continues...
   *************  **   ~~~   **   This error occurred 101899 total times;
   *************  **   ~~~   **   during Warmup 0 times;
   *************  **   ~~~   **   during Sizing 0 times.
   *************  **   ~~~   **   Max=9.705487  Min=8.216046E-004
   *************
   *************  ** Warning ** SimHVAC: Exceeding Maximum iterations for all HVAC loops, during ANNUAL continues
   *************  **   ~~~   **   This error occurred 7 total times;
   *************  **   ~~~   **   during Warmup 0 times;
   *************  **   ~~~   **   during Sizing 0 times.
   *************
   *************
   ************* ===== Final Error Summary =====
   ************* The following error categories occurred.  Consider correcting or noting.
   ************* Nominally Unused Constructions
   ************* ..The nominally unused constructions warning is provided to alert you to potential conditions that can cause
   ************* ..extra time during simulation. Each construction is calculated by the algorithm indicated in the HeatBalanceAlgorithm
   ************* ..object. You may remove the constructions indicated (when you use the DisplayExtraWarnings option).
   *************
   ************* EnergyPlus Warmup Error Summary. During Warmup: 1 Warning; 0 Severe Errors.
   ************* EnergyPlus Sizing Error Summary. During Sizing: 4 Warning; 0 Severe Errors.
   ************* EnergyPlus Completed Successfully-- 101937 Warning; 0 Severe Errors; Elapsed Time=00hr 05min 15.58sec
