Program Version,EnergyPlus, Version 22.2.0-c249759bad, YMD=2023.09.01 20:01,
   ************* Beginning Zone Sizing Calculations
   ** Warning ** ProcessScheduleInput: Schedule:Constant="ALWAYS ON DISCRETE", Schedule Type Limits Name="ONOFF" not found -- will not be validated
   ** Warning ** Foundation:Kiva="KIVA FOUNDATION", no Interior Horizontal Insulation Material Name defined
   **   ~~~   ** Interior Horizontal Insulation Depth will not be used.
   ** Warning ** CheckUsedConstructions: There are 15 nominally unused constructions in input.
   **   ~~~   ** Each Unused construction is shown.
   ************* Construction=INTERIOR FLOOR
   ************* Construction=INTERIOR WINDOW
   ************* Construction=EXTERIOR DOOR
   ************* Construction=INTERIOR DOOR
   ************* Construction=GABLE CONSTRUCTION
   ************* Construction=CRAWL_FLOOR
   ************* Construction=INSULATED PIPE
   ************* Construction=PLAIN PIPE
   ************* Construction=TDD PIPE
   ************* Construction=TDD DOME
   ************* Construction=TDD DIFFUSER
   ************* Construction=CRAWL WALL
   ************* Construction=CEILING-FLOOR-LAYER
   ************* Construction=SLAB CONSTRUCTION W FULL R10 INSULATION
   ************* Construction=SLAB CONSTRUCTION W FULL R5 INSULATION
   ** Warning ** GetDXCoils: Coil:Heating:DX:SingleSpeed="DX_HEATING_COIL" curve values
   **   ~~~   ** ... Defrost Energy Input Ratio Function of Temperature Curve Name = DEFROSTEIR output is not equal to 1.0 (+ or - 10%) at rated conditions.
   **   ~~~   ** ... Curve output at rated conditions = 0.152
   ************* Beginning System Sizing Calculations
   ************* Beginning Plant Sizing Calculations
   ** Warning ** Coil:WaterHeating:AirToWaterHeatPump:Wrapped "HEAT PUMP WATER HEATER EVAPORATOR": Rated air volume flow rate per watt of rated total water heating capacity is out of range
   **   ~~~   ** Min Rated Vol Flow Per Watt=[4.027E-005], Rated Vol Flow Per Watt=[1.510E-004], Max Rated Vol Flow Per Watt=[8.056E-005]. See Input-Output Reference Manual for valid range.
   ************* SizeFan: : Potential issue with equipment sizing for Fan:OnOff HEAT PUMP WATER HEATER FAN
   **   ~~~   ** User-Specified Maximum Flow Rate [m3/s] = 0.22653
   **   ~~~   ** differs from Design Size Maximum Flow Rate [m3/s] = 7.55250E-002
   **   ~~~   ** This may, or may not, indicate mismatched component sizes.
   **   ~~~   ** Verify that the value entered is intended and is consistent with other components.
   ** Warning ** Water heater = WATER HEATER TANK:  Recovery Efficiency and Energy Factor could not be calculated during the test for standard ratings
   **   ~~~   ** Setpoint was never recovered and/or heater never turned on
   ** Warning ** Check input. Pump nominal power or motor efficiency is set to 0, for pump=MAINS PRESSURE
   ** Warning ** Output:Meter: invalid Key Name="ELECTRIC_RANGE:INTERIOREQUIPMENT:ELECTRICITY" - not found.
   ** Warning ** Output:Meter: invalid Key Name="ELECTRIC_DRYER:INTERIOREQUIPMENT:ELECTRICITY" - not found.
   ** Warning ** Output:Meter: invalid Key Name="HEATRECOVERY:ELECTRICITY" - not found.
   ** Warning ** Output:Meter: invalid Key Name="HEATING:NATURALGAS" - not found.
   ** Warning ** Output:Meter: invalid Key Name="WATERSYSTEMS:NATURALGAS" - not found.
   ** Warning ** Output:Meter: invalid Key Name="PROPANE:FACILITY" - not found.
   ** Warning ** Output:Meter: invalid Key Name="HEATING:PROPANE" - not found.
   ************* Testing Individual Branch Integrity
   ************* All Branches passed integrity testing
   ************* Testing Individual Supply Air Path Integrity
   ************* All Supply Air Paths passed integrity testing
   ************* Testing Individual Return Air Path Integrity
   ************* All Return Air Paths passed integrity testing
   ************* No node connection errors were found.
   ************* Beginning Simulation
   ** Warning ** AirflowNetwork::Solver::validate_distribution: Heat pump water heater is simulated along with an AirflowNetwork but is not included in the AirflowNetwork.
   ** Warning ** CalcEquipmentFlowRates: "TOTAL HOT WATER LOAD" - Target water temperature is greater than the hot water temperature by (4.21 C)
   **   ~~~   **  Environment=EXTREME_WINTER, at Simulation time=12/22 07:00 - 07:15
   **   ~~~   ** ...target water temperature     = 53.33 C
   **   ~~~   ** ...hot water temperature        = 49.12 C
   **   ~~~   ** ...Target water temperature should be less than or equal to the hot water temperature. Verify temperature setpoints and schedules.
   ** Warning ** SimHVAC: Maximum iterations (20) exceeded for all HVAC loops, at ANNUAL, 02/01 13:00 - 13:15
   **   ~~~   ** The solution for one or more of the Air Loop HVAC systems did not appear to converge
   **   ~~~   ** Air System Named = CENTRAL SYSTEM did not converge for mass flow rate
   **   ~~~   ** Check values should be zero. Most Recent values listed first.
   **   ~~~   ** Demand-to-Supply interface mass flow rate check value iteration history trace: 5.562004E-002,5.562004E-002,5.562004E-002,5.562004E-002,5.562004E-002,5.562004E-002,5.562004E-002,5.562004E-002,5.562004E-002,5.562004E-002,
   **   ~~~   ** Supply-to-demand interface deck 1 mass flow rate check value iteration history trace: 5.562004E-002,5.562004E-002,5.562004E-002,5.562004E-002,5.562004E-002,5.562004E-002,5.562004E-002,5.562004E-002,5.562004E-002,5.562004E-002,
   **   ~~~   ** Air System Named = CENTRAL SYSTEM did not converge for energy
   **   ~~~   ** Check values should be zero. Most Recent values listed first.
   **   ~~~   ** Demand-to-Supply interface energy check value iteration history trace: 1087.274332,1087.274332,1087.274332,1087.274332,1087.274332,1087.274332,1087.274332,1087.274332,1087.274332,1087.274331,
   **   ~~~   ** Supply-to-demand interface deck 1 energy check value iteration history trace: 1943.190661,1943.190661,1943.190661,1943.190661,1943.190661,1943.190661,1943.190661,1943.190661,1943.190661,1943.190660,
   ** Warning ** SimHVAC: Maximum iterations (20) exceeded for all HVAC loops, at ANNUAL, 02/23 20:15 - 20:30
   **   ~~~   ** The solution for one or more of the Air Loop HVAC systems did not appear to converge
   **   ~~~   ** Air System Named = CENTRAL SYSTEM did not converge for mass flow rate
   **   ~~~   ** Check values should be zero. Most Recent values listed first.
   **   ~~~   ** Demand-to-Supply interface mass flow rate check value iteration history trace: 0.106896,0.106896,0.106896,0.106896,0.106896,0.106896,0.106896,0.106896,0.106896,0.106896,
   **   ~~~   ** Supply-to-demand interface deck 1 mass flow rate check value iteration history trace: 0.106896,0.106896,0.106896,0.106896,0.106896,0.106896,0.106896,0.106896,0.106896,0.106896,
   **   ~~~   ** Air System Named = CENTRAL SYSTEM did not converge for energy
   **   ~~~   ** Check values should be zero. Most Recent values listed first.
   **   ~~~   ** Demand-to-Supply interface energy check value iteration history trace: 2116.853108,2116.853108,2116.853108,2116.853108,2116.853108,2116.853108,2116.853107,2116.853107,2116.853107,2116.853107,
   **   ~~~   ** Supply-to-demand interface deck 1 energy check value iteration history trace: 3285.197610,3285.197610,3285.197610,3285.197609,3285.197609,3285.197609,3285.197609,3285.197608,3285.197608,3285.197608,
   ** Warning ** SimHVAC: Maximum iterations (20) exceeded for all HVAC loops, at ANNUAL, 02/26 20:15 - 20:20
   **   ~~~   ** The solution for one or more of the Air Loop HVAC systems did not appear to converge
   **   ~~~   ** Air System Named = CENTRAL SYSTEM did not converge for mass flow rate
   **   ~~~   ** Check values should be zero. Most Recent values listed first.
   **   ~~~   ** Demand-to-Supply interface mass flow rate check value iteration history trace: 9.956888E-002,9.956888E-002,9.956888E-002,9.956888E-002,9.956888E-002,9.956888E-002,9.956888E-002,9.956888E-002,9.956888E-002,9.956888E-002,
   **   ~~~   ** Supply-to-demand interface deck 1 mass flow rate check value iteration history trace: 9.956888E-002,9.956888E-002,9.956888E-002,9.956888E-002,9.956888E-002,9.956888E-002,9.956888E-002,9.956888E-002,9.956888E-002,9.956888E-002,
   **   ~~~   ** Air System Named = CENTRAL SYSTEM did not converge for energy
   **   ~~~   ** Check values should be zero. Most Recent values listed first.
   **   ~~~   ** Demand-to-Supply interface energy check value iteration history trace: 1985.973405,1985.973404,1985.973404,1985.973404,1985.973404,1985.973404,1985.973404,1985.973404,1985.973404,1985.973403,
   **   ~~~   ** Supply-to-demand interface deck 1 energy check value iteration history trace: 3182.791941,3182.791941,3182.791941,3182.791941,3182.791941,3182.791940,3182.791940,3182.791940,3182.791940,3182.791940,
   ** Warning ** SimHVAC: Maximum iterations (20) exceeded for all HVAC loops, at ANNUAL, 03/04 12:15 - 12:30
   **   ~~~   ** The solution for one or more of the Air Loop HVAC systems did not appear to converge
   **   ~~~   ** Air System Named = CENTRAL SYSTEM did not converge for mass flow rate
   **   ~~~   ** Check values should be zero. Most Recent values listed first.
   **   ~~~   ** Demand-to-Supply interface mass flow rate check value iteration history trace: 6.685975E-002,6.685975E-002,6.685975E-002,6.685975E-002,6.685975E-002,6.685975E-002,6.685975E-002,6.685975E-002,6.685975E-002,6.685975E-002,
   **   ~~~   ** Supply-to-demand interface deck 1 mass flow rate check value iteration history trace: 6.685975E-002,6.685975E-002,6.685975E-002,6.685975E-002,6.685975E-002,6.685975E-002,6.685975E-002,6.685975E-002,6.685975E-002,6.685975E-002,
   **   ~~~   ** Air System Named = CENTRAL SYSTEM did not converge for energy
   **   ~~~   ** Check values should be zero. Most Recent values listed first.
   **   ~~~   ** Demand-to-Supply interface energy check value iteration history trace: 1322.595075,1322.595075,1322.595075,1322.595075,1322.595075,1322.595075,1322.595075,1322.595075,1322.595075,1322.595075,
   **   ~~~   ** Supply-to-demand interface deck 1 energy check value iteration history trace: 2153.372312,2153.372312,2153.372312,2153.372312,2153.372312,2153.372312,2153.372312,2153.372311,2153.372311,2153.372311,
   ** Warning ** SimHVAC: Maximum iterations (20) exceeded for all HVAC loops, at ANNUAL, 03/05 09:51 - 09:52
   **   ~~~   ** The solution for one or more of the Air Loop HVAC systems did not appear to converge
   **   ~~~   ** Air System Named = CENTRAL SYSTEM did not converge for mass flow rate
   **   ~~~   ** Check values should be zero. Most Recent values listed first.
   **   ~~~   ** Demand-to-Supply interface mass flow rate check value iteration history trace: 9.679615E-002,9.679615E-002,9.679615E-002,9.679615E-002,9.679615E-002,9.679615E-002,9.679615E-002,9.679615E-002,9.679615E-002,9.679615E-002,
   **   ~~~   ** Supply-to-demand interface deck 1 mass flow rate check value iteration history trace: 9.679615E-002,9.679615E-002,9.679615E-002,9.679615E-002,9.679615E-002,9.679615E-002,9.679615E-002,9.679615E-002,9.679615E-002,9.679615E-002,
   **   ~~~   ** Air System Named = CENTRAL SYSTEM did not converge for energy
   **   ~~~   ** Check values should be zero. Most Recent values listed first.
   **   ~~~   ** Demand-to-Supply interface energy check value iteration history trace: 1918.862659,1918.862659,1918.862658,1918.862658,1918.862658,1918.862658,1918.862658,1918.862658,1918.862658,1918.862658,
   **   ~~~   ** Supply-to-demand interface deck 1 energy check value iteration history trace: 3005.572710,3005.572710,3005.572710,3005.572710,3005.572710,3005.572710,3005.572710,3005.572710,3005.572709,3005.572709,
   ** Warning ** SimHVAC: Maximum iterations (20) exceeded for all HVAC loops, at ANNUAL, 03/05 23:15 - 23:30
   **   ~~~   ** The solution for one or more of the Air Loop HVAC systems did not appear to converge
   **   ~~~   ** Air System Named = CENTRAL SYSTEM did not converge for mass flow rate
   **   ~~~   ** Check values should be zero. Most Recent values listed first.
   **   ~~~   ** Demand-to-Supply interface mass flow rate check value iteration history trace: 7.766986E-002,7.766986E-002,7.766986E-002,7.766986E-002,7.766986E-002,7.766986E-002,7.766986E-002,7.766986E-002,7.766986E-002,7.766986E-002,
   **   ~~~   ** Supply-to-demand interface deck 1 mass flow rate check value iteration history trace: 7.766986E-002,7.766986E-002,7.766986E-002,7.766986E-002,7.766986E-002,7.766986E-002,7.766986E-002,7.766986E-002,7.766986E-002,7.766986E-002,
   **   ~~~   ** Air System Named = CENTRAL SYSTEM did not converge for energy
   **   ~~~   ** Check values should be zero. Most Recent values listed first.
   **   ~~~   ** Demand-to-Supply interface energy check value iteration history trace: 1443.866621,1443.866621,1443.866621,1443.866621,1443.866621,1443.866621,1443.866621,1443.866620,1443.866620,1443.866620,
   **   ~~~   ** Supply-to-demand interface deck 1 energy check value iteration history trace: 2289.305823,2289.305822,2289.305822,2289.305822,2289.305822,2289.305822,2289.305822,2289.305822,2289.305822,2289.305822,
   ** Warning ** SimHVAC: Maximum iterations (20) exceeded for all HVAC loops, at ANNUAL, 03/13 23:00 - 23:15
   **   ~~~   ** The solution for one or more of the Air Loop HVAC systems did not appear to converge
   **   ~~~   ** Air System Named = CENTRAL SYSTEM did not converge for mass flow rate
   **   ~~~   ** Check values should be zero. Most Recent values listed first.
   **   ~~~   ** Demand-to-Supply interface mass flow rate check value iteration history trace: 8.898899E-002,8.898899E-002,8.898899E-002,8.898899E-002,8.898899E-002,8.898899E-002,8.898899E-002,8.898899E-002,8.898899E-002,8.898899E-002,
   **   ~~~   ** Supply-to-demand interface deck 1 mass flow rate check value iteration history trace: 8.898899E-002,8.898899E-002,8.898899E-002,8.898899E-002,8.898899E-002,8.898899E-002,8.898899E-002,8.898899E-002,8.898899E-002,8.898899E-002,
   **   ~~~   ** Air System Named = CENTRAL SYSTEM did not converge for energy
   **   ~~~   ** Check values should be zero. Most Recent values listed first.
   **   ~~~   ** Demand-to-Supply interface energy check value iteration history trace: 1661.913788,1661.913788,1661.913788,1661.913788,1661.913788,1661.913788,1661.913787,1661.913787,1661.913787,1661.913787,
   **   ~~~   ** Supply-to-demand interface deck 1 energy check value iteration history trace: 2578.626582,2578.626582,2578.626581,2578.626581,2578.626581,2578.626581,2578.626581,2578.626581,2578.626580,2578.626580,
   ** Warning ** SimHVAC: Maximum iterations (20) exceeded for all HVAC loops, at ANNUAL, 04/01 17:45 - 18:00
   **   ~~~   ** The solution for one or more of the Air Loop HVAC systems did not appear to converge
   **   ~~~   ** Air System Named = CENTRAL SYSTEM did not converge for mass flow rate
   **   ~~~   ** Check values should be zero. Most Recent values listed first.
   **   ~~~   ** Demand-to-Supply interface mass flow rate check value iteration history trace: 6.847609E-002,6.847609E-002,6.847609E-002,6.847609E-002,6.847609E-002,6.847609E-002,6.847609E-002,6.847609E-002,6.847609E-002,6.847609E-002,
   **   ~~~   ** Supply-to-demand interface deck 1 mass flow rate check value iteration history trace: 6.847609E-002,6.847609E-002,6.847609E-002,6.847609E-002,6.847609E-002,6.847609E-002,6.847609E-002,6.847609E-002,6.847609E-002,6.847609E-002,
   **   ~~~   ** Air System Named = CENTRAL SYSTEM did not converge for energy
   **   ~~~   ** Check values should be zero. Most Recent values listed first.
   **   ~~~   ** Demand-to-Supply interface energy check value iteration history trace: 1356.899950,1356.899950,1356.899950,1356.899950,1356.899950,1356.899950,1356.899950,1356.899950,1356.899950,1356.899949,
   **   ~~~   ** Supply-to-demand interface deck 1 energy check value iteration history trace: 2210.926593,2210.926593,2210.926592,2210.926592,2210.926592,2210.926592,2210.926592,2210.926592,2210.926592,2210.926592,
   ** Warning ** SimHVAC: Maximum iterations (20) exceeded for all HVAC loops, at ANNUAL, 04/05 10:45 - 11:00
   **   ~~~   ** The solution for one or more of the Air Loop HVAC systems did not appear to converge
   **   ~~~   ** Air System Named = CENTRAL SYSTEM did not converge for mass flow rate
   **   ~~~   ** Check values should be zero. Most Recent values listed first.
   **   ~~~   ** Demand-to-Supply interface mass flow rate check value iteration history trace: 6.725114E-002,6.725114E-002,6.725114E-002,6.725114E-002,6.725114E-002,6.725114E-002,6.725114E-002,6.725114E-002,6.725114E-002,6.725114E-002,
   **   ~~~   ** Supply-to-demand interface deck 1 mass flow rate check value iteration history trace: 6.725114E-002,6.725114E-002,6.725114E-002,6.725114E-002,6.725114E-002,6.725114E-002,6.725114E-002,6.725114E-002,6.725114E-002,6.725114E-002,
   **   ~~~   ** Air System Named = CENTRAL SYSTEM did not converge for energy
   **   ~~~   ** Check values should be zero. Most Recent values listed first.
   **   ~~~   ** Demand-to-Supply interface energy check value iteration history trace: 1332.697768,1332.697768,1332.697768,1332.697768,1332.697768,1332.697768,1332.697768,1332.697768,1332.697768,1332.697768,
   **   ~~~   ** Supply-to-demand interface deck 1 energy check value iteration history trace: 2384.417954,2384.417953,2384.417953,2384.417953,2384.417953,2384.417953,2384.417953,2384.417953,2384.417953,2384.417953,
   ** Warning ** SimHVAC: Maximum iterations (20) exceeded for all HVAC loops, at ANNUAL, 05/02 08:58 - 09:00
   **   ~~~   ** The solution for one or more of the Air Loop HVAC systems did not appear to converge
   **   ~~~   ** Air System Named = CENTRAL SYSTEM did not converge for mass flow rate
   **   ~~~   ** Check values should be zero. Most Recent values listed first.
   **   ~~~   ** Demand-to-Supply interface mass flow rate check value iteration history trace: 5.932126E-002,5.932126E-002,5.932126E-002,5.932126E-002,5.932126E-002,5.932126E-002,5.932126E-002,5.932126E-002,5.932126E-002,5.932126E-002,
   **   ~~~   ** Supply-to-demand interface deck 1 mass flow rate check value iteration history trace: 5.932126E-002,5.932126E-002,5.932126E-002,5.932126E-002,5.932126E-002,5.932126E-002,5.932126E-002,5.932126E-002,5.932126E-002,5.932126E-002,
   **   ~~~   ** Air System Named = CENTRAL SYSTEM did not converge for energy
   **   ~~~   ** Check values should be zero. Most Recent values listed first.
   **   ~~~   ** Demand-to-Supply interface energy check value iteration history trace: 1168.864644,1168.864644,1168.864644,1168.864644,1168.864644,1168.864644,1168.864644,1168.864644,1168.864644,1168.864644,
   **   ~~~   ** Supply-to-demand interface deck 1 energy check value iteration history trace: 2239.923692,2239.923692,2239.923692,2239.923692,2239.923691,2239.923691,2239.923691,2239.923691,2239.923691,2239.923691,
   ** Warning ** SimHVAC: Maximum iterations (20) exceeded for all HVAC loops, at ANNUAL, 06/05 23:15 - 23:30
   **   ~~~   ** The solution for one or more of the Air Loop HVAC systems did not appear to converge
   **   ~~~   ** Air System Named = CENTRAL SYSTEM did not converge for mass flow rate
   **   ~~~   ** Check values should be zero. Most Recent values listed first.
   **   ~~~   ** Demand-to-Supply interface mass flow rate check value iteration history trace: 7.283691E-002,7.283691E-002,7.283691E-002,7.283691E-002,7.283691E-002,7.283691E-002,7.283691E-002,7.283691E-002,7.283691E-002,7.283691E-002,
   **   ~~~   ** Supply-to-demand interface deck 1 mass flow rate check value iteration history trace: 7.283691E-002,7.283691E-002,7.283691E-002,7.283691E-002,7.283691E-002,7.283691E-002,7.283691E-002,7.283691E-002,7.283691E-002,7.283691E-002,
   **   ~~~   ** Air System Named = CENTRAL SYSTEM did not converge for energy
   **   ~~~   ** Check values should be zero. Most Recent values listed first.
   **   ~~~   ** Demand-to-Supply interface energy check value iteration history trace: 1815.842848,1815.842848,1815.842848,1815.842849,1815.842849,1815.842849,1815.842850,1815.842850,1815.842850,1815.842851,
   **   ~~~   ** Supply-to-demand interface deck 1 energy check value iteration history trace: 770.861589,770.861590,770.861590,770.861590,770.861590,770.861590,770.861590,770.861590,770.861591,770.861591,
   ** Warning ** SimHVAC: Maximum iterations (20) exceeded for all HVAC loops, at ANNUAL, 06/08 23:05 - 23:10
   **   ~~~   ** The solution for one or more of the Air Loop HVAC systems did not appear to converge
   **   ~~~   ** Air System Named = CENTRAL SYSTEM did not converge for mass flow rate
   **   ~~~   ** Check values should be zero. Most Recent values listed first.
   **   ~~~   ** Demand-to-Supply interface mass flow rate check value iteration history trace: 3.370867E-002,3.370867E-002,3.370867E-002,3.370867E-002,3.370867E-002,3.370867E-002,3.370867E-002,3.370867E-002,3.370867E-002,3.370867E-002,
   **   ~~~   ** Supply-to-demand interface deck 1 mass flow rate check value iteration history trace: 3.370867E-002,3.370867E-002,3.370867E-002,3.370867E-002,3.370867E-002,3.370867E-002,3.370867E-002,3.370867E-002,3.370867E-002,3.370867E-002,
   **   ~~~   ** Air System Named = CENTRAL SYSTEM did not converge for energy
   **   ~~~   ** Check values should be zero. Most Recent values listed first.
   **   ~~~   ** Demand-to-Supply interface energy check value iteration history trace: 824.270458,824.270458,824.270458,824.270458,824.270458,824.270458,824.270459,824.270459,824.270459,824.270459,
   **   ~~~   ** Supply-to-demand interface deck 1 energy check value iteration history trace: 352.982650,352.982650,352.982650,352.982650,352.982650,352.982650,352.982650,352.982650,352.982650,352.982651,
   ** Warning ** SimHVAC: Maximum iterations (20) exceeded for all HVAC loops, at ANNUAL, 06/15 23:23 - 23:30
   **   ~~~   ** The solution for one or more of the Air Loop HVAC systems did not appear to converge
   **   ~~~   ** Air System Named = CENTRAL SYSTEM did not converge for mass flow rate
   **   ~~~   ** Check values should be zero. Most Recent values listed first.
   **   ~~~   ** Demand-to-Supply interface mass flow rate check value iteration history trace: 0.175203,0.175203,0.175203,0.175203,0.175203,0.175203,0.175203,0.175203,0.175203,0.175203,
   **   ~~~   ** Supply-to-demand interface deck 1 mass flow rate check value iteration history trace: 0.175203,0.175203,0.175203,0.175203,0.175203,0.175203,0.175203,0.175203,0.175203,0.175203,
   **   ~~~   ** Air System Named = CENTRAL SYSTEM did not converge for energy
   **   ~~~   ** Check values should be zero. Most Recent values listed first.
   **   ~~~   ** Demand-to-Supply interface energy check value iteration history trace: 4424.758571,4424.758572,4424.758573,4424.758573,4424.758574,4424.758575,4424.758576,4424.758577,4424.758578,4424.758578,
   **   ~~~   ** Supply-to-demand interface deck 1 energy check value iteration history trace: 1858.995368,1858.995368,1858.995368,1858.995369,1858.995369,1858.995369,1858.995370,1858.995370,1858.995370,1858.995371,
   ** Warning ** SimHVAC: Maximum iterations (20) exceeded for all HVAC loops, at ANNUAL, 10/10 13:15 - 13:30
   **   ~~~   ** The solution for one or more of the Air Loop HVAC systems did not appear to converge
   **   ~~~   ** Air System Named = CENTRAL SYSTEM did not converge for mass flow rate
   **   ~~~   ** Check values should be zero. Most Recent values listed first.
   **   ~~~   ** Demand-to-Supply interface mass flow rate check value iteration history trace: 2.114588E-002,2.114588E-002,2.114588E-002,2.114588E-002,2.114588E-002,2.114588E-002,2.114588E-002,2.114588E-002,2.114588E-002,2.114588E-002,
   **   ~~~   ** Supply-to-demand interface deck 1 mass flow rate check value iteration history trace: 2.114588E-002,2.114588E-002,2.114588E-002,2.114588E-002,2.114588E-002,2.114588E-002,2.114588E-002,2.114588E-002,2.114588E-002,2.114588E-002,
   **   ~~~   ** Air System Named = CENTRAL SYSTEM did not converge for energy
   **   ~~~   ** Check values should be zero. Most Recent values listed first.
   **   ~~~   ** Demand-to-Supply interface energy check value iteration history trace: 493.923885,493.923885,493.923885,493.923885,493.923885,493.923885,493.923885,493.923885,493.923885,493.923885,
   **   ~~~   ** Supply-to-demand interface deck 1 energy check value iteration history trace: 180.928682,180.928682,180.928682,180.928682,180.928683,180.928683,180.928683,180.928683,180.928683,180.928683,
   ************* Simulation Error Summary *************
   ** Warning ** The following Report Variables were requested but not generated -- check.rdd file
   **   ~~~   ** Either the IDF did not contain these elements, the variable name is misspelled,
   **   ~~~   ** or the requested variable is an advanced output which requires Output : Diagnostics, DisplayAdvancedReportVariables;
   ************* Key=*, VarName=BASEBOARD TOTAL HEATING ENERGY, Frequency=
   ************* Key=*, VarName=WATER HEATER NATURALGAS ENERGY, Frequency=
   ************* Key=*, VarName=COOLING COIL TOTAL HEATING ENERGY, Frequency=
   ************* There are 34 unused schedules in input.
   ************* There are 388 unused week schedules in input.
   ************* There are 396 unused day schedules in input.
   ************* Use Output:Diagnostics,DisplayUnusedSchedules; to see them.
   *************
   ************* ===== Recurring Error Summary =====
   ************* The following recurring error messages occurred.
   *************
   *************  ** Warning ** "TOTAL HOT WATER LOAD" - Target water temperature should be less than or equal to the hot water temperature error continues...
   *************  **   ~~~   **   This error occurred 151859 total times;
   *************  **   ~~~   **   during Warmup 0 times;
   *************  **   ~~~   **   during Sizing 0 times.
   *************  **   ~~~   **   Max=15.660625  Min=4.614445E-004
   *************
   *************  ** Warning ** SimHVAC: Exceeding Maximum iterations for all HVAC loops, during ANNUAL continues
   *************  **   ~~~   **   This error occurred 8 total times;
   *************  **   ~~~   **   during Warmup 0 times;
   *************  **   ~~~   **   during Sizing 0 times.
   *************
   *************
   ************* ===== Final Error Summary =====
   ************* The following error categories occurred.  Consider correcting or noting.
   ************* Nominally Unused Constructions
   ************* ..The nominally unused constructions warning is provided to alert you to potential conditions that can cause
   ************* ..extra time during simulation. Each construction is calculated by the algorithm indicated in the HeatBalanceAlgorithm
   ************* ..object. You may remove the constructions indicated (when you use the DisplayExtraWarnings option).
   *************
   ************* EnergyPlus Warmup Error Summary. During Warmup: 1 Warning; 0 Severe Errors.
   ************* EnergyPlus Sizing Error Summary. During Sizing: 4 Warning; 0 Severe Errors.
   ************* EnergyPlus Completed Successfully-- 151898 Warning; 0 Severe Errors; Elapsed Time=00hr 01min 37.96sec
