Program Version,EnergyPlus, Version 22.2.0-c249759bad, YMD=2023.09.01 19:22,
   ************* Beginning Zone Sizing Calculations
   ** Warning ** ProcessScheduleInput: Schedule:Constant="ALWAYS ON DISCRETE", Schedule Type Limits Name="ONOFF" not found -- will not be validated
   ** Warning ** Foundation:Kiva="KIVA FOUNDATION", no Interior Horizontal Insulation Material Name defined
   **   ~~~   ** Interior Horizontal Insulation Depth will not be used.
   ** Warning ** CheckUsedConstructions: There are 15 nominally unused constructions in input.
   **   ~~~   ** Each Unused construction is shown.
   ************* Construction=INTERIOR FLOOR
   ************* Construction=INTERIOR WINDOW
   ************* Construction=EXTERIOR DOOR
   ************* Construction=INTERIOR DOOR
   ************* Construction=GABLE CONSTRUCTION
   ************* Construction=CRAWL_FLOOR
   ************* Construction=INSULATED PIPE
   ************* Construction=PLAIN PIPE
   ************* Construction=TDD PIPE
   ************* Construction=TDD DOME
   ************* Construction=TDD DIFFUSER
   ************* Construction=CRAWL WALL
   ************* Construction=CEILING-FLOOR-LAYER
   ************* Construction=SLAB CONSTRUCTION W FULL R10 INSULATION
   ************* Construction=SLAB CONSTRUCTION W FULL R5 INSULATION
   ** Warning ** GetDXCoils: Coil:Heating:DX:SingleSpeed="DX_HEATING_COIL" curve values
   **   ~~~   ** ... Defrost Energy Input Ratio Function of Temperature Curve Name = DEFROSTEIR output is not equal to 1.0 (+ or - 10%) at rated conditions.
   **   ~~~   ** ... Curve output at rated conditions = 0.152
   ************* Beginning System Sizing Calculations
   ************* Beginning Plant Sizing Calculations
   ** Warning ** SizeDXCoil Coil:Cooling:DX:SingleSpeed DX_COOLING_COIL
   **   ~~~   ** ...Gross Rated Total Cooling Capacity [W] will be limited by the maximum rated volume flow per rated total capacity ratio.
   **   ~~~   ** ...DX coil volume flow rate ( m3/s ) = 0.404346
   **   ~~~   ** ...Requested capacity ( W ) = 5925.058
   **   ~~~   ** ...Requested flow/capacity ratio ( m3/s/W ) = 6.824E-005
   **   ~~~   ** ...Maximum flow/capacity ratio ( m3/s/W ) = 6.041E-005
   **   ~~~   ** ...Adjusted capacity ( W ) = 6693.375
   ** Warning ** Coil:WaterHeating:AirToWaterHeatPump:Wrapped "HEAT PUMP WATER HEATER EVAPORATOR": Rated air volume flow rate per watt of rated total water heating capacity is out of range
   **   ~~~   ** Min Rated Vol Flow Per Watt=[4.027E-005], Rated Vol Flow Per Watt=[1.510E-004], Max Rated Vol Flow Per Watt=[8.056E-005]. See Input-Output Reference Manual for valid range.
   ************* SizeFan: : Potential issue with equipment sizing for Fan:OnOff HEAT PUMP WATER HEATER FAN
   **   ~~~   ** User-Specified Maximum Flow Rate [m3/s] = 0.22653
   **   ~~~   ** differs from Design Size Maximum Flow Rate [m3/s] = 7.55250E-002
   **   ~~~   ** This may, or may not, indicate mismatched component sizes.
   **   ~~~   ** Verify that the value entered is intended and is consistent with other components.
   ** Warning ** Water heater = WATER HEATER TANK:  Recovery Efficiency and Energy Factor could not be calculated during the test for standard ratings
   **   ~~~   ** Setpoint was never recovered and/or heater never turned on
   ** Warning ** Check input. Pump nominal power or motor efficiency is set to 0, for pump=MAINS PRESSURE
   ** Warning ** Output:Meter: invalid Key Name="ELECTRIC_RANGE:INTERIOREQUIPMENT:ELECTRICITY" - not found.
   ** Warning ** Output:Meter: invalid Key Name="ELECTRIC_DRYER:INTERIOREQUIPMENT:ELECTRICITY" - not found.
   ** Warning ** Output:Meter: invalid Key Name="HEATRECOVERY:ELECTRICITY" - not found.
   ** Warning ** Output:Meter: invalid Key Name="HEATING:NATURALGAS" - not found.
   ** Warning ** Output:Meter: invalid Key Name="WATERSYSTEMS:NATURALGAS" - not found.
   ** Warning ** Output:Meter: invalid Key Name="PROPANE:FACILITY" - not found.
   ** Warning ** Output:Meter: invalid Key Name="HEATING:PROPANE" - not found.
   ************* Testing Individual Branch Integrity
   ************* All Branches passed integrity testing
   ************* Testing Individual Supply Air Path Integrity
   ************* All Supply Air Paths passed integrity testing
   ************* Testing Individual Return Air Path Integrity
   ************* All Return Air Paths passed integrity testing
   ************* No node connection errors were found.
   ************* Beginning Simulation
   ** Warning ** AirflowNetwork::Solver::validate_distribution: Heat pump water heater is simulated along with an AirflowNetwork but is not included in the AirflowNetwork.
   ** Severe  ** CheckWarmupConvergence: Loads Initialization, Zone="LIVING" did not converge after 25 warmup days.
   **   ~~~   ** See Warmup Convergence Information in .eio file for details.
   **   ~~~   ** ...Environment(SizingPeriod)="EXTREME_WINTER"
   **   ~~~   ** ..Max Temp Comparison = 1.07E-004 vs Temperature Convergence Tolerance=5.00E-002 - Pass Convergence
   **   ~~~   ** ..Min Temp Comparison = 1.41E-003 vs Temperature Convergence Tolerance=5.00E-002 - Pass Convergence
   **   ~~~   ** ..Max Heat Load Comparison = 5.3793E-002 vs Loads Convergence Tolerance=5.00E-002 - Fail Convergence
   **   ~~~   ** ..Max Cool Load Comparison = 1.0190E-004 vs Loads Convergence Tolerance=5.00E-002 - Pass Convergence
   ** Severe  ** CheckWarmupConvergence: Loads Initialization, Zone="ATTIC" did not converge after 25 warmup days.
   **   ~~~   ** ...Environment(SizingPeriod)="EXTREME_WINTER"
   **   ~~~   ** ..Max Temp Comparison = 6.56E-002 vs Temperature Convergence Tolerance=5.00E-002 - Fail Convergence
   **   ~~~   ** ..Min Temp Comparison = 0.27 vs Temperature Convergence Tolerance=5.00E-002 - Fail Convergence
   **   ~~~   ** ..Max Heat Load Comparison = 0.0000 vs Loads Convergence Tolerance=5.00E-002 - Pass Convergence
   **   ~~~   ** ..Max Cool Load Comparison = 0.0000 vs Loads Convergence Tolerance=5.00E-002 - Pass Convergence
   ** Warning ** CalcEquipmentFlowRates: "TOTAL HOT WATER LOAD" - Target water temperature is greater than the hot water temperature by (0.86 C)
   **   ~~~   **  Environment=EXTREME_WINTER, at Simulation time=01/06 06:45 - 07:00
   **   ~~~   ** ...target water temperature     = 53.33 C
   **   ~~~   ** ...hot water temperature        = 52.47 C
   **   ~~~   ** ...Target water temperature should be less than or equal to the hot water temperature. Verify temperature setpoints and schedules.
   ** Warning ** SimHVAC: Maximum iterations (20) exceeded for all HVAC loops, at ANNUAL, 01/02 18:45 - 18:52
   **   ~~~   ** The solution for one or more of the Air Loop HVAC systems did not appear to converge
   **   ~~~   ** Air System Named = CENTRAL SYSTEM did not converge for mass flow rate
   **   ~~~   ** Check values should be zero. Most Recent values listed first.
   **   ~~~   ** Demand-to-Supply interface mass flow rate check value iteration history trace: 8.309035E-002,8.309035E-002,8.309035E-002,8.309035E-002,8.309035E-002,8.309035E-002,8.309035E-002,8.309035E-002,8.309035E-002,8.309035E-002,
   **   ~~~   ** Supply-to-demand interface deck 1 mass flow rate check value iteration history trace: 8.309035E-002,8.309035E-002,8.309035E-002,8.309035E-002,8.309035E-002,8.309035E-002,8.309035E-002,8.309035E-002,8.309035E-002,8.309035E-002,
   **   ~~~   ** Air System Named = CENTRAL SYSTEM did not converge for energy
   **   ~~~   ** Check values should be zero. Most Recent values listed first.
   **   ~~~   ** Demand-to-Supply interface energy check value iteration history trace: 1635.607677,1635.607677,1635.607677,1635.607677,1635.607677,1635.607677,1635.607676,1635.607676,1635.607676,1635.607676,
   **   ~~~   ** Supply-to-demand interface deck 1 energy check value iteration history trace: 2502.867546,2502.867546,2502.867546,2502.867546,2502.867546,2502.867546,2502.867545,2502.867545,2502.867545,2502.867545,
   ** Warning ** SimHVAC: Maximum iterations (20) exceeded for all HVAC loops, at ANNUAL, 02/09 12:05 - 12:08
   **   ~~~   ** The solution for one or more of the Air Loop HVAC systems did not appear to converge
   **   ~~~   ** Air System Named = CENTRAL SYSTEM did not converge for mass flow rate
   **   ~~~   ** Check values should be zero. Most Recent values listed first.
   **   ~~~   ** Demand-to-Supply interface mass flow rate check value iteration history trace: 7.069216E-002,7.069216E-002,7.069216E-002,7.069216E-002,7.069216E-002,7.069216E-002,7.069216E-002,7.069216E-002,7.069216E-002,7.069216E-002,
   **   ~~~   ** Supply-to-demand interface deck 1 mass flow rate check value iteration history trace: 7.069216E-002,7.069216E-002,7.069216E-002,7.069216E-002,7.069216E-002,7.069216E-002,7.069216E-002,7.069216E-002,7.069216E-002,7.069216E-002,
   **   ~~~   ** Air System Named = CENTRAL SYSTEM did not converge for energy
   **   ~~~   ** Check values should be zero. Most Recent values listed first.
   **   ~~~   ** Demand-to-Supply interface energy check value iteration history trace: 1400.970044,1400.970044,1400.970044,1400.970044,1400.970044,1400.970044,1400.970044,1400.970044,1400.970044,1400.970043,
   **   ~~~   ** Supply-to-demand interface deck 1 energy check value iteration history trace: 2412.963724,2412.963724,2412.963724,2412.963724,2412.963723,2412.963723,2412.963723,2412.963723,2412.963723,2412.963723,
   ** Warning ** SimHVAC: Maximum iterations (20) exceeded for all HVAC loops, at ANNUAL, 02/09 12:15 - 12:30
   **   ~~~   ** The solution for one or more of the Air Loop HVAC systems did not appear to converge
   **   ~~~   ** Air System Named = CENTRAL SYSTEM did not converge for mass flow rate
   **   ~~~   ** Check values should be zero. Most Recent values listed first.
   **   ~~~   ** Demand-to-Supply interface mass flow rate check value iteration history trace: 6.765353E-002,6.765353E-002,6.765353E-002,6.765353E-002,6.765353E-002,6.765353E-002,6.765353E-002,6.765353E-002,6.765353E-002,6.765353E-002,
   **   ~~~   ** Supply-to-demand interface deck 1 mass flow rate check value iteration history trace: 6.765353E-002,6.765353E-002,6.765353E-002,6.765353E-002,6.765353E-002,6.765353E-002,6.765353E-002,6.765353E-002,6.765353E-002,6.765353E-002,
   **   ~~~   ** Air System Named = CENTRAL SYSTEM did not converge for energy
   **   ~~~   ** Check values should be zero. Most Recent values listed first.
   **   ~~~   ** Demand-to-Supply interface energy check value iteration history trace: 1340.276656,1340.276656,1340.276656,1340.276656,1340.276656,1340.276656,1340.276656,1340.276656,1340.276656,1340.276656,
   **   ~~~   ** Supply-to-demand interface deck 1 energy check value iteration history trace: 2324.727375,2324.727375,2324.727375,2324.727375,2324.727375,2324.727375,2324.727375,2324.727374,2324.727374,2324.727374,
   ** Warning ** SimHVAC: Maximum iterations (20) exceeded for all HVAC loops, at ANNUAL, 02/09 23:30 - 23:45
   **   ~~~   ** The solution for one or more of the Air Loop HVAC systems did not appear to converge
   **   ~~~   ** Air System Named = CENTRAL SYSTEM did not converge for mass flow rate
   **   ~~~   ** Check values should be zero. Most Recent values listed first.
   **   ~~~   ** Demand-to-Supply interface mass flow rate check value iteration history trace: 6.075348E-002,6.075348E-002,6.075348E-002,6.075348E-002,6.075348E-002,6.075348E-002,6.075348E-002,6.075348E-002,6.075348E-002,6.075348E-002,
   **   ~~~   ** Supply-to-demand interface deck 1 mass flow rate check value iteration history trace: 6.075348E-002,6.075348E-002,6.075348E-002,6.075348E-002,6.075348E-002,6.075348E-002,6.075348E-002,6.075348E-002,6.075348E-002,6.075348E-002,
   **   ~~~   ** Air System Named = CENTRAL SYSTEM did not converge for energy
   **   ~~~   ** Check values should be zero. Most Recent values listed first.
   **   ~~~   ** Demand-to-Supply interface energy check value iteration history trace: 1131.177250,1131.177250,1131.177250,1131.177250,1131.177250,1131.177249,1131.177249,1131.177249,1131.177249,1131.177249,
   **   ~~~   ** Supply-to-demand interface deck 1 energy check value iteration history trace: 2013.373886,2013.373886,2013.373886,2013.373886,2013.373886,2013.373886,2013.373885,2013.373885,2013.373885,2013.373885,
   ** Warning ** SimHVAC: Maximum iterations (20) exceeded for all HVAC loops, at ANNUAL, 02/25 11:00 - 11:04
   **   ~~~   ** The solution for one or more of the Air Loop HVAC systems did not appear to converge
   **   ~~~   ** Air System Named = CENTRAL SYSTEM did not converge for mass flow rate
   **   ~~~   ** Check values should be zero. Most Recent values listed first.
   **   ~~~   ** Demand-to-Supply interface mass flow rate check value iteration history trace: 7.462718E-002,7.462718E-002,7.462718E-002,7.462718E-002,7.462718E-002,7.462718E-002,7.462718E-002,7.462718E-002,7.462718E-002,7.462718E-002,
   **   ~~~   ** Supply-to-demand interface deck 1 mass flow rate check value iteration history trace: 7.462718E-002,7.462718E-002,7.462718E-002,7.462718E-002,7.462718E-002,7.462718E-002,7.462718E-002,7.462718E-002,7.462718E-002,7.462718E-002,
   **   ~~~   ** Air System Named = CENTRAL SYSTEM did not converge for energy
   **   ~~~   ** Check values should be zero. Most Recent values listed first.
   **   ~~~   ** Demand-to-Supply interface energy check value iteration history trace: 1475.175951,1475.175951,1475.175951,1475.175951,1475.175951,1475.175951,1475.175951,1475.175951,1475.175951,1475.175951,
   **   ~~~   ** Supply-to-demand interface deck 1 energy check value iteration history trace: 2532.075866,2532.075866,2532.075866,2532.075866,2532.075866,2532.075866,2532.075866,2532.075866,2532.075865,2532.075865,
   ** Warning ** SimHVAC: Maximum iterations (20) exceeded for all HVAC loops, at ANNUAL, 03/09 10:15 - 10:17
   **   ~~~   ** The solution for one or more of the Air Loop HVAC systems did not appear to converge
   **   ~~~   ** Air System Named = CENTRAL SYSTEM did not converge for mass flow rate
   **   ~~~   ** Check values should be zero. Most Recent values listed first.
   **   ~~~   ** Demand-to-Supply interface mass flow rate check value iteration history trace: 7.665621E-002,7.665621E-002,7.665621E-002,7.665621E-002,7.665621E-002,7.665621E-002,7.665621E-002,7.665621E-002,7.665621E-002,7.665621E-002,
   **   ~~~   ** Supply-to-demand interface deck 1 mass flow rate check value iteration history trace: 7.665621E-002,7.665621E-002,7.665621E-002,7.665621E-002,7.665621E-002,7.665621E-002,7.665621E-002,7.665621E-002,7.665621E-002,7.665621E-002,
   **   ~~~   ** Air System Named = CENTRAL SYSTEM did not converge for energy
   **   ~~~   ** Check values should be zero. Most Recent values listed first.
   **   ~~~   ** Demand-to-Supply interface energy check value iteration history trace: 1516.778863,1516.778863,1516.778862,1516.778862,1516.778862,1516.778862,1516.778862,1516.778862,1516.778862,1516.778862,
   **   ~~~   ** Supply-to-demand interface deck 1 energy check value iteration history trace: 2641.479032,2641.479032,2641.479032,2641.479032,2641.479032,2641.479032,2641.479032,2641.479031,2641.479031,2641.479031,
   ** Warning ** SimHVAC: Maximum iterations (20) exceeded for all HVAC loops, at ANNUAL, 03/22 11:04 - 11:06
   **   ~~~   ** The solution for one or more of the Air Loop HVAC systems did not appear to converge
   **   ~~~   ** Air System Named = CENTRAL SYSTEM did not converge for mass flow rate
   **   ~~~   ** Check values should be zero. Most Recent values listed first.
   **   ~~~   ** Demand-to-Supply interface mass flow rate check value iteration history trace: 7.379344E-002,7.379344E-002,7.379344E-002,7.379344E-002,7.379344E-002,7.379344E-002,7.379344E-002,7.379344E-002,7.379344E-002,7.379344E-002,
   **   ~~~   ** Supply-to-demand interface deck 1 mass flow rate check value iteration history trace: 7.379344E-002,7.379344E-002,7.379344E-002,7.379344E-002,7.379344E-002,7.379344E-002,7.379344E-002,7.379344E-002,7.379344E-002,7.379344E-002,
   **   ~~~   ** Air System Named = CENTRAL SYSTEM did not converge for energy
   **   ~~~   ** Check values should be zero. Most Recent values listed first.
   **   ~~~   ** Demand-to-Supply interface energy check value iteration history trace: 1460.611754,1460.611754,1460.611754,1460.611754,1460.611754,1460.611754,1460.611754,1460.611754,1460.611754,1460.611754,
   **   ~~~   ** Supply-to-demand interface deck 1 energy check value iteration history trace: 2288.928691,2288.928691,2288.928691,2288.928691,2288.928690,2288.928690,2288.928690,2288.928690,2288.928690,2288.928690,
   ** Warning ** SimHVAC: Maximum iterations (20) exceeded for all HVAC loops, at ANNUAL, 03/29 11:45 - 12:00
   **   ~~~   ** The solution for one or more of the Air Loop HVAC systems did not appear to converge
   **   ~~~   ** Air System Named = CENTRAL SYSTEM did not converge for mass flow rate
   **   ~~~   ** Check values should be zero. Most Recent values listed first.
   **   ~~~   ** Demand-to-Supply interface mass flow rate check value iteration history trace: 6.399657E-002,6.399657E-002,6.399657E-002,6.399657E-002,6.399657E-002,6.399657E-002,6.399657E-002,6.399657E-002,6.399657E-002,6.399657E-002,
   **   ~~~   ** Supply-to-demand interface deck 1 mass flow rate check value iteration history trace: 6.399657E-002,6.399657E-002,6.399657E-002,6.399657E-002,6.399657E-002,6.399657E-002,6.399657E-002,6.399657E-002,6.399657E-002,6.399657E-002,
   **   ~~~   ** Air System Named = CENTRAL SYSTEM did not converge for energy
   **   ~~~   ** Check values should be zero. Most Recent values listed first.
   **   ~~~   ** Demand-to-Supply interface energy check value iteration history trace: 1268.213348,1268.213348,1268.213348,1268.213348,1268.213348,1268.213348,1268.213348,1268.213348,1268.213348,1268.213348,
   **   ~~~   ** Supply-to-demand interface deck 1 energy check value iteration history trace: 1978.051840,1978.051840,1978.051840,1978.051839,1978.051839,1978.051839,1978.051839,1978.051839,1978.051839,1978.051839,
   ** Warning ** SimHVAC: Maximum iterations (20) exceeded for all HVAC loops, at ANNUAL, 04/01 11:00 - 11:15
   **   ~~~   ** The solution for one or more of the Air Loop HVAC systems did not appear to converge
   **   ~~~   ** Air System Named = CENTRAL SYSTEM did not converge for mass flow rate
   **   ~~~   ** Check values should be zero. Most Recent values listed first.
   **   ~~~   ** Demand-to-Supply interface mass flow rate check value iteration history trace: 5.816278E-002,5.816278E-002,5.816278E-002,5.816278E-002,5.816278E-002,5.816278E-002,5.816278E-002,5.816278E-002,5.816278E-002,5.816278E-002,
   **   ~~~   ** Supply-to-demand interface deck 1 mass flow rate check value iteration history trace: 5.816278E-002,5.816278E-002,5.816278E-002,5.816278E-002,5.816278E-002,5.816278E-002,5.816278E-002,5.816278E-002,5.816278E-002,5.816278E-002,
   **   ~~~   ** Air System Named = CENTRAL SYSTEM did not converge for energy
   **   ~~~   ** Check values should be zero. Most Recent values listed first.
   **   ~~~   ** Demand-to-Supply interface energy check value iteration history trace: 1152.597301,1152.597301,1152.597301,1152.597301,1152.597301,1152.597301,1152.597301,1152.597301,1152.597301,1152.597301,
   **   ~~~   ** Supply-to-demand interface deck 1 energy check value iteration history trace: 2173.551279,2173.551279,2173.551279,2173.551279,2173.551279,2173.551279,2173.551279,2173.551279,2173.551279,2173.551279,
   ** Warning ** SimHVAC: Maximum iterations (20) exceeded for all HVAC loops, at ANNUAL, 04/05 10:30 - 10:35
   **   ~~~   ** The solution for one or more of the Air Loop HVAC systems did not appear to converge
   **   ~~~   ** Air System Named = CENTRAL SYSTEM did not converge for mass flow rate
   **   ~~~   ** Check values should be zero. Most Recent values listed first.
   **   ~~~   ** Demand-to-Supply interface mass flow rate check value iteration history trace: 5.146134E-002,5.146134E-002,5.146134E-002,5.146134E-002,5.146134E-002,5.146134E-002,5.146134E-002,5.146134E-002,5.146134E-002,5.146134E-002,
   **   ~~~   ** Supply-to-demand interface deck 1 mass flow rate check value iteration history trace: 5.146134E-002,5.146134E-002,5.146134E-002,5.146134E-002,5.146134E-002,5.146134E-002,5.146134E-002,5.146134E-002,5.146134E-002,5.146134E-002,
   **   ~~~   ** Air System Named = CENTRAL SYSTEM did not converge for energy
   **   ~~~   ** Check values should be zero. Most Recent values listed first.
   **   ~~~   ** Demand-to-Supply interface energy check value iteration history trace: 1019.795121,1019.795121,1019.795121,1019.795121,1019.795121,1019.795121,1019.795121,1019.795121,1019.795121,1019.795121,
   **   ~~~   ** Supply-to-demand interface deck 1 energy check value iteration history trace: 1852.473467,1852.473467,1852.473467,1852.473467,1852.473467,1852.473467,1852.473467,1852.473467,1852.473467,1852.473467,
   ** Warning ** SimHVAC: Maximum iterations (20) exceeded for all HVAC loops, at ANNUAL, 04/06 11:15 - 11:30
   **   ~~~   ** The solution for one or more of the Air Loop HVAC systems did not appear to converge
   **   ~~~   ** Air System Named = CENTRAL SYSTEM did not converge for mass flow rate
   **   ~~~   ** Check values should be zero. Most Recent values listed first.
   **   ~~~   ** Demand-to-Supply interface mass flow rate check value iteration history trace: 6.902252E-002,6.902252E-002,6.902252E-002,6.902252E-002,6.902252E-002,6.902252E-002,6.902252E-002,6.902252E-002,6.902252E-002,6.902252E-002,
   **   ~~~   ** Supply-to-demand interface deck 1 mass flow rate check value iteration history trace: 6.902252E-002,6.902252E-002,6.902252E-002,6.902252E-002,6.902252E-002,6.902252E-002,6.902252E-002,6.902252E-002,6.902252E-002,6.902252E-002,
   **   ~~~   ** Air System Named = CENTRAL SYSTEM did not converge for energy
   **   ~~~   ** Check values should be zero. Most Recent values listed first.
   **   ~~~   ** Demand-to-Supply interface energy check value iteration history trace: 1367.836989,1367.836989,1367.836988,1367.836988,1367.836988,1367.836988,1367.836988,1367.836988,1367.836988,1367.836988,
   **   ~~~   ** Supply-to-demand interface deck 1 energy check value iteration history trace: 2356.318677,2356.318677,2356.318677,2356.318677,2356.318677,2356.318677,2356.318677,2356.318677,2356.318677,2356.318676,
   ** Warning ** SimHVAC: Maximum iterations (20) exceeded for all HVAC loops, at ANNUAL, 04/07 09:45 - 09:49
   **   ~~~   ** The solution for one or more of the Air Loop HVAC systems did not appear to converge
   **   ~~~   ** Air System Named = CENTRAL SYSTEM did not converge for mass flow rate
   **   ~~~   ** Check values should be zero. Most Recent values listed first.
   **   ~~~   ** Demand-to-Supply interface mass flow rate check value iteration history trace: 6.036346E-002,6.036346E-002,6.036346E-002,6.036346E-002,6.036346E-002,6.036346E-002,6.036346E-002,6.036346E-002,6.036346E-002,6.036346E-002,
   **   ~~~   ** Supply-to-demand interface deck 1 mass flow rate check value iteration history trace: 6.036346E-002,6.036346E-002,6.036346E-002,6.036346E-002,6.036346E-002,6.036346E-002,6.036346E-002,6.036346E-002,6.036346E-002,6.036346E-002,
   **   ~~~   ** Air System Named = CENTRAL SYSTEM did not converge for energy
   **   ~~~   ** Check values should be zero. Most Recent values listed first.
   **   ~~~   ** Demand-to-Supply interface energy check value iteration history trace: 1196.199712,1196.199712,1196.199712,1196.199712,1196.199712,1196.199712,1196.199712,1196.199711,1196.199711,1196.199711,
   **   ~~~   ** Supply-to-demand interface deck 1 energy check value iteration history trace: 2102.055453,2102.055453,2102.055452,2102.055452,2102.055452,2102.055452,2102.055452,2102.055452,2102.055452,2102.055452,
   ** Warning ** SimHVAC: Maximum iterations (20) exceeded for all HVAC loops, at ANNUAL, 04/16 08:15 - 08:30
   **   ~~~   ** The solution for one or more of the Air Loop HVAC systems did not appear to converge
   **   ~~~   ** Air System Named = CENTRAL SYSTEM did not converge for mass flow rate
   **   ~~~   ** Check values should be zero. Most Recent values listed first.
   **   ~~~   ** Demand-to-Supply interface mass flow rate check value iteration history trace: 8.156774E-002,8.156774E-002,8.156774E-002,8.156774E-002,8.156774E-002,8.156774E-002,8.156774E-002,8.156774E-002,8.156774E-002,8.156774E-002,
   **   ~~~   ** Supply-to-demand interface deck 1 mass flow rate check value iteration history trace: 8.156774E-002,8.156774E-002,8.156774E-002,8.156774E-002,8.156774E-002,8.156774E-002,8.156774E-002,8.156774E-002,8.156774E-002,8.156774E-002,
   **   ~~~   ** Air System Named = CENTRAL SYSTEM did not converge for energy
   **   ~~~   ** Check values should be zero. Most Recent values listed first.
   **   ~~~   ** Demand-to-Supply interface energy check value iteration history trace: 1616.437356,1616.437356,1616.437356,1616.437356,1616.437356,1616.437356,1616.437356,1616.437356,1616.437355,1616.437355,
   **   ~~~   ** Supply-to-demand interface deck 1 energy check value iteration history trace: 2554.882427,2554.882427,2554.882427,2554.882427,2554.882427,2554.882427,2554.882427,2554.882426,2554.882426,2554.882426,
   ** Warning ** SimHVAC: Maximum iterations (20) exceeded for all HVAC loops, at ANNUAL, 05/13 06:10 - 06:15
   **   ~~~   ** The solution for one or more of the Air Loop HVAC systems did not appear to converge
   **   ~~~   ** Air System Named = CENTRAL SYSTEM did not converge for mass flow rate
   **   ~~~   ** Check values should be zero. Most Recent values listed first.
   **   ~~~   ** Demand-to-Supply interface mass flow rate check value iteration history trace: 2.361219E-002,2.361219E-002,2.361219E-002,2.361219E-002,2.361219E-002,2.361219E-002,2.361219E-002,2.361219E-002,2.361219E-002,2.361219E-002,
   **   ~~~   ** Supply-to-demand interface deck 1 mass flow rate check value iteration history trace: 2.361219E-002,2.361219E-002,2.361219E-002,2.361219E-002,2.361219E-002,2.361219E-002,2.361219E-002,2.361219E-002,2.361219E-002,2.361219E-002,
   **   ~~~   ** Air System Named = CENTRAL SYSTEM did not converge for energy
   **   ~~~   ** Check values should be zero. Most Recent values listed first.
   **   ~~~   ** Demand-to-Supply interface energy check value iteration history trace: 467.864128,467.864128,467.864128,467.864128,467.864127,467.864127,467.864127,467.864127,467.864127,467.864127,
   **   ~~~   ** Supply-to-demand interface deck 1 energy check value iteration history trace: 721.784469,721.784469,721.784469,721.784469,721.784469,721.784469,721.784469,721.784468,721.784468,721.784468,
   ************* Simulation Error Summary *************
   ** Warning ** The following Report Variables were requested but not generated -- check.rdd file
   **   ~~~   ** Either the IDF did not contain these elements, the variable name is misspelled,
   **   ~~~   ** or the requested variable is an advanced output which requires Output : Diagnostics, DisplayAdvancedReportVariables;
   ************* Key=*, VarName=BASEBOARD TOTAL HEATING ENERGY, Frequency=
   ************* Key=*, VarName=WATER HEATER NATURALGAS ENERGY, Frequency=
   ************* Key=*, VarName=COOLING COIL TOTAL HEATING ENERGY, Frequency=
   ************* There are 34 unused schedules in input.
   ************* There are 388 unused week schedules in input.
   ************* There are 397 unused day schedules in input.
   ************* Use Output:Diagnostics,DisplayUnusedSchedules; to see them.
   *************
   ************* ===== Recurring Error Summary =====
   ************* The following recurring error messages occurred.
   *************
   *************  ** Warning ** "TOTAL HOT WATER LOAD" - Target water temperature should be less than or equal to the hot water temperature error continues...
   *************  **   ~~~   **   This error occurred 111981 total times;
   *************  **   ~~~   **   during Warmup 0 times;
   *************  **   ~~~   **   during Sizing 0 times.
   *************  **   ~~~   **   Max=9.651539  Min=2.608497E-004
   *************
   *************  ** Warning ** SimHVAC: Exceeding Maximum iterations for all HVAC loops, during ANNUAL continues
   *************  **   ~~~   **   This error occurred 7 total times;
   *************  **   ~~~   **   during Warmup 0 times;
   *************  **   ~~~   **   during Sizing 0 times.
   *************
   *************
   ************* ===== Final Error Summary =====
   ************* The following error categories occurred.  Consider correcting or noting.
   ************* Loads Initialization did not Converge
   ************* ..1) very high thermal mass such as very thick concrete (solution: increase max number of warmup
   ************* ..   days in the BUILDING object);
   ************* ..2) moderate mass and inadequate space conditioning such that the building keeps getting warmer
   ************* ..   and warmer on successive days (solution: add HVAC, check building thermal properties,
   ************* ..   check if infiltration is included, make sure HVAC properly controlled);
   ************* ..3) a soil layer modeled below the concrete slab - (solution remove this layer and read about
   ************* ..   ground temperatures in the Auxiliary Programs document).
   ************* ..4) unreasonable (too small) limits in the BUILDING object for temperature (.4 default) or
   ************* ..   loads tolerances (.04 default)
   ************* Nominally Unused Constructions
   ************* ..The nominally unused constructions warning is provided to alert you to potential conditions that can cause
   ************* ..extra time during simulation. Each construction is calculated by the algorithm indicated in the HeatBalanceAlgorithm
   ************* ..object. You may remove the constructions indicated (when you use the DisplayExtraWarnings option).
   *************
   ************* EnergyPlus Warmup Error Summary. During Warmup: 1 Warning; 2 Severe Errors.
   ************* EnergyPlus Sizing Error Summary. During Sizing: 4 Warning; 0 Severe Errors.
   ************* EnergyPlus Completed Successfully-- 112020 Warning; 2 Severe Errors; Elapsed Time=00hr 01min 44.16sec
