Program Version,EnergyPlus, Version 22.2.0-c249759bad, YMD=2023.09.01 14:22,
   ************* Beginning Zone Sizing Calculations
   ** Warning ** ProcessScheduleInput: Schedule:Constant="ALWAYS ON DISCRETE", Schedule Type Limits Name="ONOFF" not found -- will not be validated
   ** Warning ** Foundation:Kiva="KIVA FOUNDATION", no Interior Horizontal Insulation Material Name defined
   **   ~~~   ** Interior Horizontal Insulation Depth will not be used.
   ** Warning ** CheckUsedConstructions: There are 15 nominally unused constructions in input.
   **   ~~~   ** Each Unused construction is shown.
   ************* Construction=INTERIOR FLOOR
   ************* Construction=INTERIOR WINDOW
   ************* Construction=EXTERIOR DOOR
   ************* Construction=INTERIOR DOOR
   ************* Construction=GABLE CONSTRUCTION
   ************* Construction=CRAWL_FLOOR
   ************* Construction=INSULATED PIPE
   ************* Construction=PLAIN PIPE
   ************* Construction=TDD PIPE
   ************* Construction=TDD DOME
   ************* Construction=TDD DIFFUSER
   ************* Construction=CRAWL WALL
   ************* Construction=CEILING-FLOOR-LAYER
   ************* Construction=SLAB CONSTRUCTION W FULL R10 INSULATION
   ************* Construction=SLAB CONSTRUCTION W FULL R5 INSULATION
   ** Warning ** GetDXCoils: Coil:Heating:DX:SingleSpeed="DX_HEATING_COIL" curve values
   **   ~~~   ** ... Defrost Energy Input Ratio Function of Temperature Curve Name = DEFROSTEIR output is not equal to 1.0 (+ or - 10%) at rated conditions.
   **   ~~~   ** ... Curve output at rated conditions = 0.152
   ** Severe  ** WaterHeater:HeatPump:WrappedCondenser="WATER HEATER":
   **   ~~~   ** The HPWH's air inlet node name = ZONE EXHAUST NODE was not properly specified 
   **   ~~~   ** as an exhaust air node for zone = CRAWLSPACE in a ZoneHVAC:EquipmentConnections object.
   ** Severe  ** WaterHeater:HeatPump:WrappedCondenser="WATER HEATER":
   **   ~~~   ** The HPWH's air outlet node name = HPWH ZONE INLET NODE was not properly specified 
   **   ~~~   ** as an inlet air node for zone = CRAWLSPACE in a ZoneHVAC:EquipmentConnections object.
   ** Severe  ** WaterHeater:HeatPump:WrappedCondenser = WATER HEATER:
   **   ~~~   ** Heat pump water heater type and name must be listed in the correct ZoneHVAC:EquipmentList object when Inlet Air Configuration is equal to ZoneAirOnly or ZoneAndOutdoorAir.
   ************* Beginning System Sizing Calculations
   ************* Beginning Plant Sizing Calculations
   ** Warning ** SizeDXCoil Coil:Cooling:DX:SingleSpeed DX_COOLING_COIL
   **   ~~~   ** ...Gross Rated Total Cooling Capacity [W] will be limited by the maximum rated volume flow per rated total capacity ratio.
   **   ~~~   ** ...DX coil volume flow rate ( m3/s ) = 0.505459
   **   ~~~   ** ...Requested capacity ( W ) = 6586.510
   **   ~~~   ** ...Requested flow/capacity ratio ( m3/s/W ) = 7.674E-005
   **   ~~~   ** ...Maximum flow/capacity ratio ( m3/s/W ) = 6.041E-005
   **   ~~~   ** ...Adjusted capacity ( W ) = 8367.157
   ** Warning ** SizeDXCoil Coil:Heating:DX:SingleSpeed DX_HEATING_COIL
   **   ~~~   ** ...Gross Rated Heating Capacity [W] will be limited by the maximum rated volume flow per rated total capacity ratio.
   **   ~~~   ** ...DX coil volume flow rate ( m3/s ) = 0.505459
   **   ~~~   ** ...Requested capacity ( W ) = 8367.157
   **   ~~~   ** ...Requested flow/capacity ratio ( m3/s/W ) = 6.041E-005
   **   ~~~   ** ...Maximum flow/capacity ratio ( m3/s/W ) = 6.041E-005
   **   ~~~   ** ...Adjusted capacity ( W ) = 8367.157
   ** Warning ** Coil:WaterHeating:AirToWaterHeatPump:Wrapped "HEAT PUMP WATER HEATER EVAPORATOR": Rated air volume flow rate per watt of rated total water heating capacity is out of range
   **   ~~~   ** Min Rated Vol Flow Per Watt=[4.027E-005], Rated Vol Flow Per Watt=[1.386E-004], Max Rated Vol Flow Per Watt=[8.056E-005]. See Input-Output Reference Manual for valid range.
   ** Warning ** Water heater = WATER HEATER TANK:  Recovery Efficiency and Energy Factor could not be calculated during the test for standard ratings
   **   ~~~   ** Setpoint was never recovered and/or heater never turned on
   ** Warning ** Check input. Pump nominal power or motor efficiency is set to 0, for pump=MAINS PRESSURE
   ** Warning ** Output:Meter: invalid Key Name="ELECTRIC_RANGE:INTERIOREQUIPMENT:ELECTRICITY" - not found.
   ** Warning ** Output:Meter: invalid Key Name="ELECTRIC_DRYER:INTERIOREQUIPMENT:ELECTRICITY" - not found.
   ** Warning ** Output:Meter: invalid Key Name="HEATRECOVERY:ELECTRICITY" - not found.
   ** Warning ** Output:Meter: invalid Key Name="HEATING:NATURALGAS" - not found.
   ** Warning ** Output:Meter: invalid Key Name="WATERSYSTEMS:NATURALGAS" - not found.
   ** Warning ** Output:Meter: invalid Key Name="PROPANE:FACILITY" - not found.
   ** Warning ** Output:Meter: invalid Key Name="HEATING:PROPANE" - not found.
   ************* Testing Individual Branch Integrity
   ************* All Branches passed integrity testing
   ************* Testing Individual Supply Air Path Integrity
   ************* All Supply Air Paths passed integrity testing
   ************* Testing Individual Return Air Path Integrity
   ************* All Return Air Paths passed integrity testing
   ************* No node connection errors were found.
   ************* Beginning Simulation
   ** Warning ** AirflowNetwork::Solver::validate_distribution: Heat pump water heater is simulated along with an AirflowNetwork but is not included in the AirflowNetwork.
   ** Warning ** CalcEquipmentFlowRates: "TOTAL HOT WATER LOAD" - Target water temperature is greater than the hot water temperature by (1.70 C)
   **   ~~~   **  Environment=EXTREME_WINTER, at Simulation time=01/06 06:00 - 06:15
   **   ~~~   ** ...target water temperature     = 53.33 C
   **   ~~~   ** ...hot water temperature        = 51.64 C
   **   ~~~   ** ...Target water temperature should be less than or equal to the hot water temperature. Verify temperature setpoints and schedules.
   ** Warning ** SimHVAC: Maximum iterations (20) exceeded for all HVAC loops, at ANNUAL, 01/08 18:00 - 18:15
   **   ~~~   ** The solution for one or more of the Air Loop HVAC systems did not appear to converge
   **   ~~~   ** Air System Named = CENTRAL SYSTEM did not converge for mass flow rate
   **   ~~~   ** Check values should be zero. Most Recent values listed first.
   **   ~~~   ** Demand-to-Supply interface mass flow rate check value iteration history trace: 0.105728,0.105728,0.105728,0.105728,0.105728,0.105728,0.105728,0.105728,0.105728,0.105728,
   **   ~~~   ** Supply-to-demand interface deck 1 mass flow rate check value iteration history trace: 0.105728,0.105728,0.105728,0.105728,0.105728,0.105728,0.105728,0.105728,0.105728,0.105728,
   **   ~~~   ** Air System Named = CENTRAL SYSTEM did not converge for energy
   **   ~~~   ** Check values should be zero. Most Recent values listed first.
   **   ~~~   ** Demand-to-Supply interface energy check value iteration history trace: 2089.409261,2089.409261,2089.409261,2089.409260,2089.409260,2089.409260,2089.409260,2089.409260,2089.409260,2089.409260,
   **   ~~~   ** Supply-to-demand interface deck 1 energy check value iteration history trace: 3201.773076,3201.773076,3201.773076,3201.773076,3201.773076,3201.773075,3201.773075,3201.773075,3201.773075,3201.773074,
   ** Warning ** SimHVAC: Maximum iterations (20) exceeded for all HVAC loops, at ANNUAL, 01/14 10:02 - 10:04
   **   ~~~   ** The solution for one or more of the Air Loop HVAC systems did not appear to converge
   **   ~~~   ** Air System Named = CENTRAL SYSTEM did not converge for mass flow rate
   **   ~~~   ** Check values should be zero. Most Recent values listed first.
   **   ~~~   ** Demand-to-Supply interface mass flow rate check value iteration history trace: 7.797748E-002,7.797748E-002,7.797748E-002,7.797748E-002,7.797748E-002,7.797748E-002,7.797748E-002,7.797748E-002,7.797748E-002,7.797748E-002,
   **   ~~~   ** Supply-to-demand interface deck 1 mass flow rate check value iteration history trace: 7.797748E-002,7.797748E-002,7.797748E-002,7.797748E-002,7.797748E-002,7.797748E-002,7.797748E-002,7.797748E-002,7.797748E-002,7.797748E-002,
   **   ~~~   ** Air System Named = CENTRAL SYSTEM did not converge for energy
   **   ~~~   ** Check values should be zero. Most Recent values listed first.
   **   ~~~   ** Demand-to-Supply interface energy check value iteration history trace: 1545.299133,1545.299133,1545.299133,1545.299133,1545.299133,1545.299133,1545.299133,1545.299132,1545.299132,1545.299132,
   **   ~~~   ** Supply-to-demand interface deck 1 energy check value iteration history trace: 2595.963590,2595.963590,2595.963589,2595.963589,2595.963589,2595.963589,2595.963589,2595.963589,2595.963589,2595.963589,
   ** Warning ** SimHVAC: Maximum iterations (20) exceeded for all HVAC loops, at ANNUAL, 01/22 11:35 - 11:38
   **   ~~~   ** The solution for one or more of the Air Loop HVAC systems did not appear to converge
   **   ~~~   ** Air System Named = CENTRAL SYSTEM did not converge for mass flow rate
   **   ~~~   ** Check values should be zero. Most Recent values listed first.
   **   ~~~   ** Demand-to-Supply interface mass flow rate check value iteration history trace: 5.609648E-002,5.609648E-002,5.609648E-002,5.609648E-002,5.609648E-002,5.609648E-002,5.609648E-002,5.609648E-002,5.609648E-002,5.609648E-002,
   **   ~~~   ** Supply-to-demand interface deck 1 mass flow rate check value iteration history trace: 5.609648E-002,5.609648E-002,5.609648E-002,5.609648E-002,5.609648E-002,5.609648E-002,5.609648E-002,5.609648E-002,5.609648E-002,5.609648E-002,
   **   ~~~   ** Air System Named = CENTRAL SYSTEM did not converge for energy
   **   ~~~   ** Check values should be zero. Most Recent values listed first.
   **   ~~~   ** Demand-to-Supply interface energy check value iteration history trace: 1105.834651,1105.834650,1105.834650,1105.834650,1105.834650,1105.834650,1105.834650,1105.834650,1105.834650,1105.834650,
   **   ~~~   ** Supply-to-demand interface deck 1 energy check value iteration history trace: 2075.584779,2075.584779,2075.584779,2075.584779,2075.584779,2075.584779,2075.584779,2075.584779,2075.584779,2075.584779,
   ** Warning ** Temperature out of range [-100. to 200.] (PsyPsatFnTemp)
   **   ~~~   **  Routine=PsyTwbFnTdbWPb, Environment=ANNUAL, at Simulation time=02/12 05:45 - 05:52
   **   ~~~   **  Input Temperature=-232.28
   ** Warning ** SimHVAC: Maximum iterations (20) exceeded for all HVAC loops, at ANNUAL, 02/13 19:30 - 19:35
   **   ~~~   ** The solution for one or more of the Air Loop HVAC systems did not appear to converge
   **   ~~~   ** Air System Named = CENTRAL SYSTEM did not converge for mass flow rate
   **   ~~~   ** Check values should be zero. Most Recent values listed first.
   **   ~~~   ** Demand-to-Supply interface mass flow rate check value iteration history trace: 7.235863E-002,7.235863E-002,7.235863E-002,7.235863E-002,7.235863E-002,7.235863E-002,7.235863E-002,7.235863E-002,7.235863E-002,7.235863E-002,
   **   ~~~   ** Supply-to-demand interface deck 1 mass flow rate check value iteration history trace: 7.235863E-002,7.235863E-002,7.235863E-002,7.235863E-002,7.235863E-002,7.235863E-002,7.235863E-002,7.235863E-002,7.235863E-002,7.235863E-002,
   **   ~~~   ** Air System Named = CENTRAL SYSTEM did not converge for energy
   **   ~~~   ** Check values should be zero. Most Recent values listed first.
   **   ~~~   ** Demand-to-Supply interface energy check value iteration history trace: 1434.009158,1434.009158,1434.009158,1434.009158,1434.009158,1434.009158,1434.009158,1434.009158,1434.009158,1434.009157,
   **   ~~~   ** Supply-to-demand interface deck 1 energy check value iteration history trace: 2561.041137,2561.041137,2561.041137,2561.041137,2561.041137,2561.041136,2561.041136,2561.041136,2561.041136,2561.041136,
   ** Warning ** SimHVAC: Maximum iterations (20) exceeded for all HVAC loops, at ANNUAL, 03/17 06:45 - 06:50
   **   ~~~   ** The solution for one or more of the Air Loop HVAC systems did not appear to converge
   **   ~~~   ** Air System Named = CENTRAL SYSTEM did not converge for mass flow rate
   **   ~~~   ** Check values should be zero. Most Recent values listed first.
   **   ~~~   ** Demand-to-Supply interface mass flow rate check value iteration history trace: 6.698698E-002,6.698698E-002,6.698698E-002,6.698698E-002,6.698698E-002,6.698698E-002,6.698698E-002,6.698698E-002,6.698698E-002,6.698698E-002,
   **   ~~~   ** Supply-to-demand interface deck 1 mass flow rate check value iteration history trace: 6.698698E-002,6.698698E-002,6.698698E-002,6.698698E-002,6.698698E-002,6.698698E-002,6.698698E-002,6.698698E-002,6.698698E-002,6.698698E-002,
   **   ~~~   ** Air System Named = CENTRAL SYSTEM did not converge for energy
   **   ~~~   ** Check values should be zero. Most Recent values listed first.
   **   ~~~   ** Demand-to-Supply interface energy check value iteration history trace: 1326.598129,1326.598129,1326.598129,1326.598129,1326.598129,1326.598129,1326.598129,1326.598129,1326.598129,1326.598129,
   **   ~~~   ** Supply-to-demand interface deck 1 energy check value iteration history trace: 2499.070572,2499.070572,2499.070572,2499.070572,2499.070572,2499.070571,2499.070571,2499.070571,2499.070571,2499.070571,
   ** Warning ** SimHVAC: Maximum iterations (20) exceeded for all HVAC loops, at ANNUAL, 04/15 08:55 - 08:56
   **   ~~~   ** The solution for one or more of the Air Loop HVAC systems did not appear to converge
   **   ~~~   ** Air System Named = CENTRAL SYSTEM did not converge for mass flow rate
   **   ~~~   ** Check values should be zero. Most Recent values listed first.
   **   ~~~   ** Demand-to-Supply interface mass flow rate check value iteration history trace: 6.235274E-002,6.235274E-002,6.235274E-002,6.235274E-002,6.235274E-002,6.235274E-002,6.235274E-002,6.235274E-002,6.235274E-002,6.235274E-002,
   **   ~~~   ** Supply-to-demand interface deck 1 mass flow rate check value iteration history trace: 6.235274E-002,6.235274E-002,6.235274E-002,6.235274E-002,6.235274E-002,6.235274E-002,6.235274E-002,6.235274E-002,6.235274E-002,6.235274E-002,
   **   ~~~   ** Air System Named = CENTRAL SYSTEM did not converge for energy
   **   ~~~   ** Check values should be zero. Most Recent values listed first.
   **   ~~~   ** Demand-to-Supply interface energy check value iteration history trace: 1232.911706,1232.911706,1232.911706,1232.911706,1232.911706,1232.911706,1232.911706,1232.911706,1232.911706,1232.911706,
   **   ~~~   ** Supply-to-demand interface deck 1 energy check value iteration history trace: 2373.749082,2373.749082,2373.749082,2373.749082,2373.749082,2373.749082,2373.749082,2373.749082,2373.749082,2373.749082,
   ** Warning ** SimHVAC: Maximum iterations (20) exceeded for all HVAC loops, at ANNUAL, 04/19 07:30 - 07:33
   **   ~~~   ** The solution for one or more of the Air Loop HVAC systems did not appear to converge
   **   ~~~   ** Air System Named = CENTRAL SYSTEM did not converge for mass flow rate
   **   ~~~   ** Check values should be zero. Most Recent values listed first.
   **   ~~~   ** Demand-to-Supply interface mass flow rate check value iteration history trace: 6.100209E-002,6.100209E-002,6.100209E-002,6.100209E-002,6.100209E-002,6.100209E-002,6.100209E-002,6.100209E-002,6.100209E-002,6.100209E-002,
   **   ~~~   ** Supply-to-demand interface deck 1 mass flow rate check value iteration history trace: 6.100209E-002,6.100209E-002,6.100209E-002,6.100209E-002,6.100209E-002,6.100209E-002,6.100209E-002,6.100209E-002,6.100209E-002,6.100209E-002,
   **   ~~~   ** Air System Named = CENTRAL SYSTEM did not converge for energy
   **   ~~~   ** Check values should be zero. Most Recent values listed first.
   **   ~~~   ** Demand-to-Supply interface energy check value iteration history trace: 1203.852979,1203.852979,1203.852979,1203.852979,1203.852979,1203.852979,1203.852979,1203.852979,1203.852979,1203.852979,
   **   ~~~   ** Supply-to-demand interface deck 1 energy check value iteration history trace: 2241.039049,2241.039049,2241.039049,2241.039049,2241.039049,2241.039049,2241.039049,2241.039049,2241.039049,2241.039049,
   ** Warning ** SimHVAC: Maximum iterations (20) exceeded for all HVAC loops, at ANNUAL, 04/25 07:27 - 07:30
   **   ~~~   ** The solution for one or more of the Air Loop HVAC systems did not appear to converge
   **   ~~~   ** Air System Named = CENTRAL SYSTEM did not converge for mass flow rate
   **   ~~~   ** Check values should be zero. Most Recent values listed first.
   **   ~~~   ** Demand-to-Supply interface mass flow rate check value iteration history trace: 5.378183E-002,5.378183E-002,5.378183E-002,5.378183E-002,5.378183E-002,5.378183E-002,5.378183E-002,5.378183E-002,5.378183E-002,5.378183E-002,
   **   ~~~   ** Supply-to-demand interface deck 1 mass flow rate check value iteration history trace: 5.378183E-002,5.378183E-002,5.378183E-002,5.378183E-002,5.378183E-002,5.378183E-002,5.378183E-002,5.378183E-002,5.378183E-002,5.378183E-002,
   **   ~~~   ** Air System Named = CENTRAL SYSTEM did not converge for energy
   **   ~~~   ** Check values should be zero. Most Recent values listed first.
   **   ~~~   ** Demand-to-Supply interface energy check value iteration history trace: 1059.103249,1059.103249,1059.103249,1059.103249,1059.103249,1059.103249,1059.103249,1059.103249,1059.103249,1059.103249,
   **   ~~~   ** Supply-to-demand interface deck 1 energy check value iteration history trace: 2053.623795,2053.623795,2053.623795,2053.623795,2053.623795,2053.623795,2053.623795,2053.623795,2053.623795,2053.623795,
   ** Warning ** SimHVAC: Maximum iterations (20) exceeded for all HVAC loops, at ANNUAL, 05/02 06:57 - 07:00
   **   ~~~   ** The solution for one or more of the Air Loop HVAC systems did not appear to converge
   **   ~~~   ** Air System Named = CENTRAL SYSTEM did not converge for mass flow rate
   **   ~~~   ** Check values should be zero. Most Recent values listed first.
   **   ~~~   ** Demand-to-Supply interface mass flow rate check value iteration history trace: 5.315067E-002,5.315067E-002,5.315067E-002,5.315067E-002,5.315067E-002,5.315067E-002,5.315067E-002,5.315067E-002,5.315067E-002,5.315067E-002,
   **   ~~~   ** Supply-to-demand interface deck 1 mass flow rate check value iteration history trace: 5.315067E-002,5.315067E-002,5.315067E-002,5.315067E-002,5.315067E-002,5.315067E-002,5.315067E-002,5.315067E-002,5.315067E-002,5.315067E-002,
   **   ~~~   ** Air System Named = CENTRAL SYSTEM did not converge for energy
   **   ~~~   ** Check values should be zero. Most Recent values listed first.
   **   ~~~   ** Demand-to-Supply interface energy check value iteration history trace: 1054.886737,1054.886737,1054.886737,1054.886737,1054.886736,1054.886736,1054.886736,1054.886736,1054.886736,1054.886736,
   **   ~~~   ** Supply-to-demand interface deck 1 energy check value iteration history trace: 1977.702144,1977.702144,1977.702144,1977.702144,1977.702144,1977.702144,1977.702144,1977.702144,1977.702143,1977.702143,
   ** Warning ** SimHVAC: Maximum iterations (20) exceeded for all HVAC loops, at ANNUAL, 10/10 07:38 - 07:45
   **   ~~~   ** The solution for one or more of the Air Loop HVAC systems did not appear to converge
   **   ~~~   ** Air System Named = CENTRAL SYSTEM did not converge for mass flow rate
   **   ~~~   ** Check values should be zero. Most Recent values listed first.
   **   ~~~   ** Demand-to-Supply interface mass flow rate check value iteration history trace: 6.411985E-002,6.411985E-002,6.411985E-002,6.411985E-002,6.411985E-002,6.411985E-002,6.411985E-002,6.411985E-002,6.411985E-002,6.411985E-002,
   **   ~~~   ** Supply-to-demand interface deck 1 mass flow rate check value iteration history trace: 6.411985E-002,6.411985E-002,6.411985E-002,6.411985E-002,6.411985E-002,6.411985E-002,6.411985E-002,6.411985E-002,6.411985E-002,6.411985E-002,
   **   ~~~   ** Air System Named = CENTRAL SYSTEM did not converge for energy
   **   ~~~   ** Check values should be zero. Most Recent values listed first.
   **   ~~~   ** Demand-to-Supply interface energy check value iteration history trace: 1262.139432,1262.139432,1262.139432,1262.139432,1262.139432,1262.139432,1262.139432,1262.139432,1262.139432,1262.139432,
   **   ~~~   ** Supply-to-demand interface deck 1 energy check value iteration history trace: 2286.650460,2286.650460,2286.650460,2286.650460,2286.650460,2286.650460,2286.650460,2286.650460,2286.650460,2286.650460,
   ** Warning ** SimHVAC: Maximum iterations (20) exceeded for all HVAC loops, at ANNUAL, 10/11 06:45 - 07:00
   **   ~~~   ** The solution for one or more of the Air Loop HVAC systems did not appear to converge
   **   ~~~   ** Air System Named = CENTRAL SYSTEM did not converge for mass flow rate
   **   ~~~   ** Check values should be zero. Most Recent values listed first.
   **   ~~~   ** Demand-to-Supply interface mass flow rate check value iteration history trace: 6.926856E-002,6.926856E-002,6.926856E-002,6.926856E-002,6.926856E-002,6.926856E-002,6.926856E-002,6.926856E-002,6.926856E-002,6.926856E-002,
   **   ~~~   ** Supply-to-demand interface deck 1 mass flow rate check value iteration history trace: 6.926856E-002,6.926856E-002,6.926856E-002,6.926856E-002,6.926856E-002,6.926856E-002,6.926856E-002,6.926856E-002,6.926856E-002,6.926856E-002,
   **   ~~~   ** Air System Named = CENTRAL SYSTEM did not converge for energy
   **   ~~~   ** Check values should be zero. Most Recent values listed first.
   **   ~~~   ** Demand-to-Supply interface energy check value iteration history trace: 1363.423993,1363.423993,1363.423993,1363.423993,1363.423993,1363.423993,1363.423993,1363.423993,1363.423993,1363.423993,
   **   ~~~   ** Supply-to-demand interface deck 1 energy check value iteration history trace: 2467.036846,2467.036846,2467.036846,2467.036846,2467.036846,2467.036846,2467.036846,2467.036846,2467.036846,2467.036845,
   ** Warning ** SimHVAC: Maximum iterations (20) exceeded for all HVAC loops, at ANNUAL, 11/05 12:25 - 12:30
   **   ~~~   ** The solution for one or more of the Air Loop HVAC systems did not appear to converge
   **   ~~~   ** Air System Named = CENTRAL SYSTEM did not converge for mass flow rate
   **   ~~~   ** Check values should be zero. Most Recent values listed first.
   **   ~~~   ** Demand-to-Supply interface mass flow rate check value iteration history trace: 0.179979,0.179979,0.179979,0.179979,0.179979,0.179979,0.179979,0.179979,0.179979,0.179979,
   **   ~~~   ** Supply-to-demand interface deck 1 mass flow rate check value iteration history trace: 0.179979,0.179979,0.179979,0.179979,0.179979,0.179979,0.179979,0.179979,0.179979,0.179979,
   **   ~~~   ** Air System Named = CENTRAL SYSTEM did not converge for energy
   **   ~~~   ** Check values should be zero. Most Recent values listed first.
   **   ~~~   ** Demand-to-Supply interface energy check value iteration history trace: 4293.610150,4293.610150,4293.610150,4293.610150,4293.610150,4293.610151,4293.610151,4293.610151,4293.610151,4293.610151,
   **   ~~~   ** Supply-to-demand interface deck 1 energy check value iteration history trace: 1326.525587,1326.525587,1326.525587,1326.525587,1326.525587,1326.525587,1326.525587,1326.525587,1326.525587,1326.525587,
   ** Warning ** SimHVAC: Maximum iterations (20) exceeded for all HVAC loops, at ANNUAL, 11/08 07:00 - 07:15
   **   ~~~   ** The solution for one or more of the Air Loop HVAC systems did not appear to converge
   **   ~~~   ** Air System Named = CENTRAL SYSTEM did not converge for mass flow rate
   **   ~~~   ** Check values should be zero. Most Recent values listed first.
   **   ~~~   ** Demand-to-Supply interface mass flow rate check value iteration history trace: 7.425577E-002,7.425577E-002,7.425577E-002,7.425577E-002,7.425577E-002,7.425577E-002,7.425577E-002,7.425577E-002,7.425577E-002,7.425577E-002,
   **   ~~~   ** Supply-to-demand interface deck 1 mass flow rate check value iteration history trace: 7.425577E-002,7.425577E-002,7.425577E-002,7.425577E-002,7.425577E-002,7.425577E-002,7.425577E-002,7.425577E-002,7.425577E-002,7.425577E-002,
   **   ~~~   ** Air System Named = CENTRAL SYSTEM did not converge for energy
   **   ~~~   ** Check values should be zero. Most Recent values listed first.
   **   ~~~   ** Demand-to-Supply interface energy check value iteration history trace: 1470.219393,1470.219392,1470.219392,1470.219392,1470.219392,1470.219392,1470.219392,1470.219392,1470.219392,1470.219392,
   **   ~~~   ** Supply-to-demand interface deck 1 energy check value iteration history trace: 2624.972968,2624.972968,2624.972968,2624.972968,2624.972968,2624.972968,2624.972968,2624.972968,2624.972968,2624.972967,
   ** Warning ** SimHVAC: Maximum iterations (20) exceeded for all HVAC loops, at ANNUAL, 11/09 07:30 - 07:38
   **   ~~~   ** The solution for one or more of the Air Loop HVAC systems did not appear to converge
   **   ~~~   ** Air System Named = CENTRAL SYSTEM did not converge for mass flow rate
   **   ~~~   ** Check values should be zero. Most Recent values listed first.
   **   ~~~   ** Demand-to-Supply interface mass flow rate check value iteration history trace: 6.385889E-002,6.385889E-002,6.385889E-002,6.385889E-002,6.385889E-002,6.385889E-002,6.385889E-002,6.385889E-002,6.385889E-002,6.385889E-002,
   **   ~~~   ** Supply-to-demand interface deck 1 mass flow rate check value iteration history trace: 6.385889E-002,6.385889E-002,6.385889E-002,6.385889E-002,6.385889E-002,6.385889E-002,6.385889E-002,6.385889E-002,6.385889E-002,6.385889E-002,
   **   ~~~   ** Air System Named = CENTRAL SYSTEM did not converge for energy
   **   ~~~   ** Check values should be zero. Most Recent values listed first.
   **   ~~~   ** Demand-to-Supply interface energy check value iteration history trace: 1266.751504,1266.751504,1266.751503,1266.751503,1266.751503,1266.751503,1266.751503,1266.751503,1266.751503,1266.751503,
   **   ~~~   ** Supply-to-demand interface deck 1 energy check value iteration history trace: 2311.053846,2311.053846,2311.053846,2311.053845,2311.053845,2311.053845,2311.053845,2311.053845,2311.053845,2311.053845,
   ************* Simulation Error Summary *************
   ** Warning ** The following Report Variables were requested but not generated -- check.rdd file
   **   ~~~   ** Either the IDF did not contain these elements, the variable name is misspelled,
   **   ~~~   ** or the requested variable is an advanced output which requires Output : Diagnostics, DisplayAdvancedReportVariables;
   ************* Key=*, VarName=BASEBOARD TOTAL HEATING ENERGY, Frequency=
   ************* Key=*, VarName=WATER HEATER NATURALGAS ENERGY, Frequency=
   ************* Key=*, VarName=COOLING COIL TOTAL HEATING ENERGY, Frequency=
   ************* There are 34 unused schedules in input.
   ************* There are 388 unused week schedules in input.
   ************* There are 396 unused day schedules in input.
   ************* Use Output:Diagnostics,DisplayUnusedSchedules; to see them.
   *************
   ************* ===== Recurring Error Summary =====
   ************* The following recurring error messages occurred.
   *************
   *************  ** Warning ** "TOTAL HOT WATER LOAD" - Target water temperature should be less than or equal to the hot water temperature error continues...
   *************  **   ~~~   **   This error occurred 147237 total times;
   *************  **   ~~~   **   during Warmup 0 times;
   *************  **   ~~~   **   during Sizing 0 times.
   *************  **   ~~~   **   Max=9.32235  Min=5.414161E-005
   *************
   *************  ** Warning ** Temperature out of range [-100. to 200.] (PsyPsatFnTemp)
   *************  **   ~~~   **   This error occurred 1 total times;
   *************  **   ~~~   **   during Warmup 0 times;
   *************  **   ~~~   **   during Sizing 0 times.
   *************  **   ~~~   **   Max=-232.287086 C  Min=-232.287086 C
   *************
   *************  ** Warning ** SimHVAC: Exceeding Maximum iterations for all HVAC loops, during ANNUAL continues
   *************  **   ~~~   **   This error occurred 2 total times;
   *************  **   ~~~   **   during Warmup 0 times;
   *************  **   ~~~   **   during Sizing 0 times.
   *************
   *************
   ************* ===== Final Error Summary =====
   ************* The following error categories occurred.  Consider correcting or noting.
   ************* Nominally Unused Constructions
   ************* ..The nominally unused constructions warning is provided to alert you to potential conditions that can cause
   ************* ..extra time during simulation. Each construction is calculated by the algorithm indicated in the HeatBalanceAlgorithm
   ************* ..object. You may remove the constructions indicated (when you use the DisplayExtraWarnings option).
   *************
   ************* EnergyPlus Warmup Error Summary. During Warmup: 1 Warning; 0 Severe Errors.
   ************* EnergyPlus Sizing Error Summary. During Sizing: 4 Warning; 3 Severe Errors.
   ************* EnergyPlus Completed Successfully-- 147273 Warning; 3 Severe Errors; Elapsed Time=00hr 01min 36.29sec
