Program Version,EnergyPlus, Version 22.2.0-c249759bad, YMD=2023.09.01 19:39,
   ************* Beginning Zone Sizing Calculations
   ** Warning ** ProcessScheduleInput: Schedule:Constant="ALWAYS ON DISCRETE", Schedule Type Limits Name="ONOFF" not found -- will not be validated
   ** Warning ** Foundation:Kiva="KIVA FOUNDATION", no Interior Horizontal Insulation Material Name defined
   **   ~~~   ** Interior Horizontal Insulation Depth will not be used.
   ** Warning ** CheckUsedConstructions: There are 15 nominally unused constructions in input.
   **   ~~~   ** Each Unused construction is shown.
   ************* Construction=INTERIOR FLOOR
   ************* Construction=INTERIOR WINDOW
   ************* Construction=EXTERIOR DOOR
   ************* Construction=INTERIOR DOOR
   ************* Construction=GABLE CONSTRUCTION
   ************* Construction=CRAWL_FLOOR
   ************* Construction=INSULATED PIPE
   ************* Construction=PLAIN PIPE
   ************* Construction=TDD PIPE
   ************* Construction=TDD DOME
   ************* Construction=TDD DIFFUSER
   ************* Construction=CRAWL WALL
   ************* Construction=CEILING-FLOOR-LAYER
   ************* Construction=SLAB CONSTRUCTION W FULL R10 INSULATION
   ************* Construction=SLAB CONSTRUCTION W FULL R5 INSULATION
   ** Warning ** GetDXCoils: Coil:Heating:DX:SingleSpeed="DX_HEATING_COIL" curve values
   **   ~~~   ** ... Defrost Energy Input Ratio Function of Temperature Curve Name = DEFROSTEIR output is not equal to 1.0 (+ or - 10%) at rated conditions.
   **   ~~~   ** ... Curve output at rated conditions = 0.152
   ************* Beginning System Sizing Calculations
   ************* Beginning Plant Sizing Calculations
   ** Warning ** Coil:WaterHeating:AirToWaterHeatPump:Wrapped "HEAT PUMP WATER HEATER EVAPORATOR": Rated air volume flow rate per watt of rated total water heating capacity is out of range
   **   ~~~   ** Min Rated Vol Flow Per Watt=[4.027E-005], Rated Vol Flow Per Watt=[1.510E-004], Max Rated Vol Flow Per Watt=[8.056E-005]. See Input-Output Reference Manual for valid range.
   ************* SizeFan: : Potential issue with equipment sizing for Fan:OnOff HEAT PUMP WATER HEATER FAN
   **   ~~~   ** User-Specified Maximum Flow Rate [m3/s] = 0.22653
   **   ~~~   ** differs from Design Size Maximum Flow Rate [m3/s] = 7.55250E-002
   **   ~~~   ** This may, or may not, indicate mismatched component sizes.
   **   ~~~   ** Verify that the value entered is intended and is consistent with other components.
   ** Warning ** Water heater = WATER HEATER TANK:  Recovery Efficiency and Energy Factor could not be calculated during the test for standard ratings
   **   ~~~   ** Setpoint was never recovered and/or heater never turned on
   ** Warning ** Check input. Pump nominal power or motor efficiency is set to 0, for pump=MAINS PRESSURE
   ** Warning ** Output:Meter: invalid Key Name="ELECTRIC_RANGE:INTERIOREQUIPMENT:ELECTRICITY" - not found.
   ** Warning ** Output:Meter: invalid Key Name="ELECTRIC_DRYER:INTERIOREQUIPMENT:ELECTRICITY" - not found.
   ** Warning ** Output:Meter: invalid Key Name="HEATRECOVERY:ELECTRICITY" - not found.
   ** Warning ** Output:Meter: invalid Key Name="HEATING:NATURALGAS" - not found.
   ** Warning ** Output:Meter: invalid Key Name="WATERSYSTEMS:NATURALGAS" - not found.
   ** Warning ** Output:Meter: invalid Key Name="PROPANE:FACILITY" - not found.
   ** Warning ** Output:Meter: invalid Key Name="HEATING:PROPANE" - not found.
   ************* Testing Individual Branch Integrity
   ************* All Branches passed integrity testing
   ************* Testing Individual Supply Air Path Integrity
   ************* All Supply Air Paths passed integrity testing
   ************* Testing Individual Return Air Path Integrity
   ************* All Return Air Paths passed integrity testing
   ************* No node connection errors were found.
   ************* Beginning Simulation
   ** Warning ** AirflowNetwork::Solver::validate_distribution: Heat pump water heater is simulated along with an AirflowNetwork but is not included in the AirflowNetwork.
   ** Warning ** CalcEquipmentFlowRates: "TOTAL HOT WATER LOAD" - Target water temperature is greater than the hot water temperature by (5.47 C)
   **   ~~~   **  Environment=EXTREME_WINTER, at Simulation time=01/08 06:00 - 06:15
   **   ~~~   ** ...target water temperature     = 53.33 C
   **   ~~~   ** ...hot water temperature        = 47.86 C
   **   ~~~   ** ...Target water temperature should be less than or equal to the hot water temperature. Verify temperature setpoints and schedules.
   ** Warning ** SimHVAC: Maximum iterations (20) exceeded for all HVAC loops, at ANNUAL, 01/22 18:00 - 18:05
   **   ~~~   ** The solution for one or more of the Air Loop HVAC systems did not appear to converge
   **   ~~~   ** Air System Named = CENTRAL SYSTEM did not converge for mass flow rate
   **   ~~~   ** Check values should be zero. Most Recent values listed first.
   **   ~~~   ** Demand-to-Supply interface mass flow rate check value iteration history trace: 8.910235E-002,8.910235E-002,8.910235E-002,8.910235E-002,8.910235E-002,8.910235E-002,8.910235E-002,8.910235E-002,8.910235E-002,8.910235E-002,
   **   ~~~   ** Supply-to-demand interface deck 1 mass flow rate check value iteration history trace: 8.910235E-002,8.910235E-002,8.910235E-002,8.910235E-002,8.910235E-002,8.910235E-002,8.910235E-002,8.910235E-002,8.910235E-002,8.910235E-002,
   **   ~~~   ** Air System Named = CENTRAL SYSTEM did not converge for energy
   **   ~~~   ** Check values should be zero. Most Recent values listed first.
   **   ~~~   ** Demand-to-Supply interface energy check value iteration history trace: 1764.119769,1764.119769,1764.119769,1764.119769,1764.119769,1764.119768,1764.119768,1764.119768,1764.119768,1764.119768,
   **   ~~~   ** Supply-to-demand interface deck 1 energy check value iteration history trace: 2834.062433,2834.062433,2834.062433,2834.062433,2834.062433,2834.062432,2834.062432,2834.062432,2834.062432,2834.062432,
   ** Warning ** SimHVAC: Maximum iterations (20) exceeded for all HVAC loops, at ANNUAL, 01/24 10:00 - 10:15
   **   ~~~   ** The solution for one or more of the Air Loop HVAC systems did not appear to converge
   **   ~~~   ** Air System Named = CENTRAL SYSTEM did not converge for mass flow rate
   **   ~~~   ** Check values should be zero. Most Recent values listed first.
   **   ~~~   ** Demand-to-Supply interface mass flow rate check value iteration history trace: 1.809734E-002,1.809734E-002,1.809734E-002,1.809734E-002,1.809734E-002,1.809734E-002,1.809734E-002,1.809734E-002,1.809734E-002,1.809734E-002,
   **   ~~~   ** Supply-to-demand interface deck 1 mass flow rate check value iteration history trace: 1.809734E-002,1.809734E-002,1.809734E-002,1.809734E-002,1.809734E-002,1.809734E-002,1.809734E-002,1.809734E-002,1.809734E-002,1.809734E-002,
   **   ~~~   ** Air System Named = CENTRAL SYSTEM did not converge for energy
   **   ~~~   ** Check values should be zero. Most Recent values listed first.
   **   ~~~   ** Demand-to-Supply interface energy check value iteration history trace: 358.632290,358.632290,358.632290,358.632290,358.632290,358.632290,358.632290,358.632290,358.632290,358.632289,
   **   ~~~   ** Supply-to-demand interface deck 1 energy check value iteration history trace: 569.866227,569.866227,569.866227,569.866227,569.866227,569.866227,569.866227,569.866227,569.866227,569.866227,
   ** Warning ** SimHVAC: Maximum iterations (20) exceeded for all HVAC loops, at ANNUAL, 01/28 08:45 - 09:00
   **   ~~~   ** The solution for one or more of the Air Loop HVAC systems did not appear to converge
   **   ~~~   ** Air System Named = CENTRAL SYSTEM did not converge for mass flow rate
   **   ~~~   ** Check values should be zero. Most Recent values listed first.
   **   ~~~   ** Demand-to-Supply interface mass flow rate check value iteration history trace: 6.562992E-002,6.562992E-002,6.562992E-002,6.562992E-002,6.562992E-002,6.562992E-002,6.562992E-002,6.562992E-002,6.562992E-002,6.562992E-002,
   **   ~~~   ** Supply-to-demand interface deck 1 mass flow rate check value iteration history trace: 6.562992E-002,6.562992E-002,6.562992E-002,6.562992E-002,6.562992E-002,6.562992E-002,6.562992E-002,6.562992E-002,6.562992E-002,6.562992E-002,
   **   ~~~   ** Air System Named = CENTRAL SYSTEM did not converge for energy
   **   ~~~   ** Check values should be zero. Most Recent values listed first.
   **   ~~~   ** Demand-to-Supply interface energy check value iteration history trace: 1300.533690,1300.533690,1300.533690,1300.533690,1300.533690,1300.533690,1300.533690,1300.533690,1300.533690,1300.533690,
   **   ~~~   ** Supply-to-demand interface deck 1 energy check value iteration history trace: 2379.085271,2379.085271,2379.085271,2379.085271,2379.085271,2379.085271,2379.085271,2379.085271,2379.085271,2379.085271,
   ** Warning ** SimHVAC: Maximum iterations (20) exceeded for all HVAC loops, at ANNUAL, 02/05 10:05 - 10:07
   **   ~~~   ** The solution for one or more of the Air Loop HVAC systems did not appear to converge
   **   ~~~   ** Air System Named = CENTRAL SYSTEM did not converge for mass flow rate
   **   ~~~   ** Check values should be zero. Most Recent values listed first.
   **   ~~~   ** Demand-to-Supply interface mass flow rate check value iteration history trace: 7.045215E-002,7.045215E-002,7.045215E-002,7.045215E-002,7.045215E-002,7.045215E-002,7.045215E-002,7.045215E-002,7.045215E-002,7.045215E-002,
   **   ~~~   ** Supply-to-demand interface deck 1 mass flow rate check value iteration history trace: 7.045215E-002,7.045215E-002,7.045215E-002,7.045215E-002,7.045215E-002,7.045215E-002,7.045215E-002,7.045215E-002,7.045215E-002,7.045215E-002,
   **   ~~~   ** Air System Named = CENTRAL SYSTEM did not converge for energy
   **   ~~~   ** Check values should be zero. Most Recent values listed first.
   **   ~~~   ** Demand-to-Supply interface energy check value iteration history trace: 1394.034845,1394.034845,1394.034845,1394.034845,1394.034844,1394.034844,1394.034844,1394.034844,1394.034844,1394.034844,
   **   ~~~   ** Supply-to-demand interface deck 1 energy check value iteration history trace: 2496.479744,2496.479744,2496.479744,2496.479744,2496.479744,2496.479744,2496.479744,2496.479744,2496.479744,2496.479744,
   ** Warning ** SimHVAC: Maximum iterations (20) exceeded for all HVAC loops, at ANNUAL, 02/09 20:45 - 21:00
   **   ~~~   ** The solution for one or more of the Air Loop HVAC systems did not appear to converge
   **   ~~~   ** Air System Named = CENTRAL SYSTEM did not converge for mass flow rate
   **   ~~~   ** Check values should be zero. Most Recent values listed first.
   **   ~~~   ** Demand-to-Supply interface mass flow rate check value iteration history trace: 5.266191E-002,5.266191E-002,5.266191E-002,5.266191E-002,5.266191E-002,5.266191E-002,5.266191E-002,5.266191E-002,5.266191E-002,5.266191E-002,
   **   ~~~   ** Supply-to-demand interface deck 1 mass flow rate check value iteration history trace: 5.266191E-002,5.266191E-002,5.266191E-002,5.266191E-002,5.266191E-002,5.266191E-002,5.266191E-002,5.266191E-002,5.266191E-002,5.266191E-002,
   **   ~~~   ** Air System Named = CENTRAL SYSTEM did not converge for energy
   **   ~~~   ** Check values should be zero. Most Recent values listed first.
   **   ~~~   ** Demand-to-Supply interface energy check value iteration history trace: 1045.057823,1045.057823,1045.057823,1045.057823,1045.057823,1045.057823,1045.057823,1045.057823,1045.057823,1045.057823,
   **   ~~~   ** Supply-to-demand interface deck 1 energy check value iteration history trace: 1821.867246,1821.867246,1821.867245,1821.867245,1821.867245,1821.867245,1821.867245,1821.867245,1821.867245,1821.867245,
   ** Warning ** SimHVAC: Maximum iterations (20) exceeded for all HVAC loops, at ANNUAL, 02/18 20:00 - 20:15
   **   ~~~   ** The solution for one or more of the Air Loop HVAC systems did not appear to converge
   **   ~~~   ** Air System Named = CENTRAL SYSTEM did not converge for mass flow rate
   **   ~~~   ** Check values should be zero. Most Recent values listed first.
   **   ~~~   ** Demand-to-Supply interface mass flow rate check value iteration history trace: 6.246477E-002,6.246477E-002,6.246477E-002,6.246477E-002,6.246477E-002,6.246477E-002,6.246477E-002,6.246477E-002,6.246477E-002,6.246477E-002,
   **   ~~~   ** Supply-to-demand interface deck 1 mass flow rate check value iteration history trace: 6.246477E-002,6.246477E-002,6.246477E-002,6.246477E-002,6.246477E-002,6.246477E-002,6.246477E-002,6.246477E-002,6.246477E-002,6.246477E-002,
   **   ~~~   ** Air System Named = CENTRAL SYSTEM did not converge for energy
   **   ~~~   ** Check values should be zero. Most Recent values listed first.
   **   ~~~   ** Demand-to-Supply interface energy check value iteration history trace: 1229.041951,1229.041951,1229.041951,1229.041951,1229.041951,1229.041951,1229.041951,1229.041951,1229.041951,1229.041951,
   **   ~~~   ** Supply-to-demand interface deck 1 energy check value iteration history trace: 2108.613977,2108.613977,2108.613977,2108.613977,2108.613977,2108.613977,2108.613976,2108.613976,2108.613976,2108.613976,
   ** Warning ** SimHVAC: Maximum iterations (20) exceeded for all HVAC loops, at ANNUAL, 02/19 10:30 - 10:45
   **   ~~~   ** The solution for one or more of the Air Loop HVAC systems did not appear to converge
   **   ~~~   ** Air System Named = CENTRAL SYSTEM did not converge for mass flow rate
   **   ~~~   ** Check values should be zero. Most Recent values listed first.
   **   ~~~   ** Demand-to-Supply interface mass flow rate check value iteration history trace: 9.547285E-002,9.547285E-002,9.547285E-002,9.547285E-002,9.547285E-002,9.547285E-002,9.547285E-002,9.547285E-002,9.547285E-002,9.547285E-002,
   **   ~~~   ** Supply-to-demand interface deck 1 mass flow rate check value iteration history trace: 9.547285E-002,9.547285E-002,9.547285E-002,9.547285E-002,9.547285E-002,9.547285E-002,9.547285E-002,9.547285E-002,9.547285E-002,9.547285E-002,
   **   ~~~   ** Air System Named = CENTRAL SYSTEM did not converge for energy
   **   ~~~   ** Check values should be zero. Most Recent values listed first.
   **   ~~~   ** Demand-to-Supply interface energy check value iteration history trace: 1891.911489,1891.911489,1891.911489,1891.911489,1891.911489,1891.911489,1891.911488,1891.911488,1891.911488,1891.911488,
   **   ~~~   ** Supply-to-demand interface deck 1 energy check value iteration history trace: 3023.229275,3023.229275,3023.229275,3023.229275,3023.229274,3023.229274,3023.229274,3023.229274,3023.229274,3023.229273,
   ** Warning ** SimHVAC: Maximum iterations (20) exceeded for all HVAC loops, at ANNUAL, 02/20 17:05 - 17:10
   **   ~~~   ** The solution for one or more of the Air Loop HVAC systems did not appear to converge
   **   ~~~   ** Air System Named = CENTRAL SYSTEM did not converge for mass flow rate
   **   ~~~   ** Check values should be zero. Most Recent values listed first.
   **   ~~~   ** Demand-to-Supply interface mass flow rate check value iteration history trace: 0.109491,0.109491,0.109491,0.109491,0.109491,0.109491,0.109491,0.109491,0.109491,0.109491,
   **   ~~~   ** Supply-to-demand interface deck 1 mass flow rate check value iteration history trace: 0.109491,0.109491,0.109491,0.109491,0.109491,0.109491,0.109491,0.109491,0.109491,0.109491,
   **   ~~~   ** Air System Named = CENTRAL SYSTEM did not converge for energy
   **   ~~~   ** Check values should be zero. Most Recent values listed first.
   **   ~~~   ** Demand-to-Supply interface energy check value iteration history trace: 2171.964910,2171.964910,2171.964910,2171.964910,2171.964909,2171.964909,2171.964909,2171.964909,2171.964909,2171.964909,
   **   ~~~   ** Supply-to-demand interface deck 1 energy check value iteration history trace: 3232.172946,3232.172946,3232.172946,3232.172945,3232.172945,3232.172945,3232.172945,3232.172944,3232.172944,3232.172944,
   ** Warning ** SimHVAC: Maximum iterations (20) exceeded for all HVAC loops, at ANNUAL, 04/14 17:15 - 17:30
   **   ~~~   ** The solution for one or more of the Air Loop HVAC systems did not appear to converge
   **   ~~~   ** Air System Named = CENTRAL SYSTEM did not converge for mass flow rate
   **   ~~~   ** Check values should be zero. Most Recent values listed first.
   **   ~~~   ** Demand-to-Supply interface mass flow rate check value iteration history trace: 8.320840E-002,8.320840E-002,8.320840E-002,8.320840E-002,8.320840E-002,8.320840E-002,8.320840E-002,8.320840E-002,8.320840E-002,8.320840E-002,
   **   ~~~   ** Supply-to-demand interface deck 1 mass flow rate check value iteration history trace: 8.320840E-002,8.320840E-002,8.320840E-002,8.320840E-002,8.320840E-002,8.320840E-002,8.320840E-002,8.320840E-002,8.320840E-002,8.320840E-002,
   **   ~~~   ** Air System Named = CENTRAL SYSTEM did not converge for energy
   **   ~~~   ** Check values should be zero. Most Recent values listed first.
   **   ~~~   ** Demand-to-Supply interface energy check value iteration history trace: 1655.089233,1655.089233,1655.089233,1655.089233,1655.089233,1655.089233,1655.089233,1655.089233,1655.089233,1655.089233,
   **   ~~~   ** Supply-to-demand interface deck 1 energy check value iteration history trace: 2635.033415,2635.033415,2635.033415,2635.033415,2635.033415,2635.033415,2635.033415,2635.033415,2635.033415,2635.033414,
   ** Warning ** SimHVAC: Maximum iterations (20) exceeded for all HVAC loops, at ANNUAL, 04/25 07:10 - 07:13
   **   ~~~   ** The solution for one or more of the Air Loop HVAC systems did not appear to converge
   **   ~~~   ** Air System Named = CENTRAL SYSTEM did not converge for mass flow rate
   **   ~~~   ** Check values should be zero. Most Recent values listed first.
   **   ~~~   ** Demand-to-Supply interface mass flow rate check value iteration history trace: 6.131814E-002,6.131814E-002,6.131814E-002,6.131814E-002,6.131814E-002,6.131814E-002,6.131814E-002,6.131814E-002,6.131814E-002,6.131814E-002,
   **   ~~~   ** Supply-to-demand interface deck 1 mass flow rate check value iteration history trace: 6.131814E-002,6.131814E-002,6.131814E-002,6.131814E-002,6.131814E-002,6.131814E-002,6.131814E-002,6.131814E-002,6.131814E-002,6.131814E-002,
   **   ~~~   ** Air System Named = CENTRAL SYSTEM did not converge for energy
   **   ~~~   ** Check values should be zero. Most Recent values listed first.
   **   ~~~   ** Demand-to-Supply interface energy check value iteration history trace: 1212.198475,1212.198475,1212.198475,1212.198475,1212.198475,1212.198475,1212.198475,1212.198475,1212.198475,1212.198474,
   **   ~~~   ** Supply-to-demand interface deck 1 energy check value iteration history trace: 2127.601586,2127.601586,2127.601586,2127.601585,2127.601585,2127.601585,2127.601585,2127.601585,2127.601585,2127.601585,
   ** Warning ** SimHVAC: Maximum iterations (20) exceeded for all HVAC loops, at ANNUAL, 04/30 11:50 - 11:55
   **   ~~~   ** The solution for one or more of the Air Loop HVAC systems did not appear to converge
   **   ~~~   ** Air System Named = CENTRAL SYSTEM did not converge for mass flow rate
   **   ~~~   ** Check values should be zero. Most Recent values listed first.
   **   ~~~   ** Demand-to-Supply interface mass flow rate check value iteration history trace: 5.517056E-002,5.517056E-002,5.517056E-002,5.517056E-002,5.517056E-002,5.517056E-002,5.517056E-002,5.517056E-002,5.517056E-002,5.517056E-002,
   **   ~~~   ** Supply-to-demand interface deck 1 mass flow rate check value iteration history trace: 5.517056E-002,5.517056E-002,5.517056E-002,5.517056E-002,5.517056E-002,5.517056E-002,5.517056E-002,5.517056E-002,5.517056E-002,5.517056E-002,
   **   ~~~   ** Air System Named = CENTRAL SYSTEM did not converge for energy
   **   ~~~   ** Check values should be zero. Most Recent values listed first.
   **   ~~~   ** Demand-to-Supply interface energy check value iteration history trace: 1086.750403,1086.750403,1086.750403,1086.750403,1086.750402,1086.750402,1086.750402,1086.750402,1086.750402,1086.750402,
   **   ~~~   ** Supply-to-demand interface deck 1 energy check value iteration history trace: 2017.067462,2017.067462,2017.067462,2017.067462,2017.067462,2017.067462,2017.067462,2017.067462,2017.067462,2017.067461,
   ** Warning ** SimHVAC: Maximum iterations (20) exceeded for all HVAC loops, at ANNUAL, 05/10 08:00 - 08:08
   **   ~~~   ** The solution for one or more of the Air Loop HVAC systems did not appear to converge
   **   ~~~   ** Air System Named = CENTRAL SYSTEM did not converge for mass flow rate
   **   ~~~   ** Check values should be zero. Most Recent values listed first.
   **   ~~~   ** Demand-to-Supply interface mass flow rate check value iteration history trace: 5.211806E-002,5.211806E-002,5.211806E-002,5.211806E-002,5.211806E-002,5.211806E-002,5.211806E-002,5.211806E-002,5.211806E-002,5.211806E-002,
   **   ~~~   ** Supply-to-demand interface deck 1 mass flow rate check value iteration history trace: 5.211806E-002,5.211806E-002,5.211806E-002,5.211806E-002,5.211806E-002,5.211806E-002,5.211806E-002,5.211806E-002,5.211806E-002,5.211806E-002,
   **   ~~~   ** Air System Named = CENTRAL SYSTEM did not converge for energy
   **   ~~~   ** Check values should be zero. Most Recent values listed first.
   **   ~~~   ** Demand-to-Supply interface energy check value iteration history trace: 1026.873579,1026.873579,1026.873579,1026.873579,1026.873579,1026.873579,1026.873579,1026.873579,1026.873579,1026.873579,
   **   ~~~   ** Supply-to-demand interface deck 1 energy check value iteration history trace: 1881.416033,1881.416033,1881.416033,1881.416033,1881.416033,1881.416033,1881.416032,1881.416032,1881.416032,1881.416032,
   ** Warning ** SimHVAC: Maximum iterations (20) exceeded for all HVAC loops, at ANNUAL, 05/13 07:38 - 07:45
   **   ~~~   ** The solution for one or more of the Air Loop HVAC systems did not appear to converge
   **   ~~~   ** Air System Named = CENTRAL SYSTEM did not converge for mass flow rate
   **   ~~~   ** Check values should be zero. Most Recent values listed first.
   **   ~~~   ** Demand-to-Supply interface mass flow rate check value iteration history trace: 0.152059,0.152059,0.152059,0.152059,0.152059,0.152059,0.152059,0.152059,0.152059,0.152059,
   **   ~~~   ** Supply-to-demand interface deck 1 mass flow rate check value iteration history trace: 0.152059,0.152059,0.152059,0.152059,0.152059,0.152059,0.152059,0.152059,0.152059,0.152059,
   **   ~~~   ** Air System Named = CENTRAL SYSTEM did not converge for energy
   **   ~~~   ** Check values should be zero. Most Recent values listed first.
   **   ~~~   ** Demand-to-Supply interface energy check value iteration history trace: 3596.364967,3596.364967,3596.364968,3596.364968,3596.364968,3596.364968,3596.364969,3596.364969,3596.364969,3596.364969,
   **   ~~~   ** Supply-to-demand interface deck 1 energy check value iteration history trace: 1999.418156,1999.418156,1999.418157,1999.418157,1999.418157,1999.418157,1999.418157,1999.418157,1999.418157,1999.418158,
   ** Warning ** SimHVAC: Maximum iterations (20) exceeded for all HVAC loops, at ANNUAL, 05/23 03:00 - 03:15
   **   ~~~   ** The solution for one or more of the Air Loop HVAC systems did not appear to converge
   **   ~~~   ** Air System Named = CENTRAL SYSTEM did not converge for mass flow rate
   **   ~~~   ** Check values should be zero. Most Recent values listed first.
   **   ~~~   ** Demand-to-Supply interface mass flow rate check value iteration history trace: 1.386782E-002,1.386782E-002,1.386782E-002,1.386782E-002,1.386782E-002,1.386782E-002,1.386782E-002,1.386782E-002,1.386782E-002,1.386782E-002,
   **   ~~~   ** Supply-to-demand interface deck 1 mass flow rate check value iteration history trace: 1.386782E-002,1.386782E-002,1.386782E-002,1.386782E-002,1.386782E-002,1.386782E-002,1.386782E-002,1.386782E-002,1.386782E-002,1.386782E-002,
   **   ~~~   ** Air System Named = CENTRAL SYSTEM did not converge for energy
   **   ~~~   ** Check values should be zero. Most Recent values listed first.
   **   ~~~   ** Demand-to-Supply interface energy check value iteration history trace: 338.162961,338.162961,338.162961,338.162961,338.162961,338.162961,338.162962,338.162962,338.162962,338.162962,
   **   ~~~   ** Supply-to-demand interface deck 1 energy check value iteration history trace: 194.092697,194.092697,194.092697,194.092697,194.092697,194.092698,194.092698,194.092698,194.092698,194.092698,
   ************* Simulation Error Summary *************
   ** Warning ** The following Report Variables were requested but not generated -- check.rdd file
   **   ~~~   ** Either the IDF did not contain these elements, the variable name is misspelled,
   **   ~~~   ** or the requested variable is an advanced output which requires Output : Diagnostics, DisplayAdvancedReportVariables;
   ************* Key=*, VarName=BASEBOARD TOTAL HEATING ENERGY, Frequency=
   ************* Key=*, VarName=WATER HEATER NATURALGAS ENERGY, Frequency=
   ************* Key=*, VarName=COOLING COIL TOTAL HEATING ENERGY, Frequency=
   ************* There are 34 unused schedules in input.
   ************* There are 388 unused week schedules in input.
   ************* There are 396 unused day schedules in input.
   ************* Use Output:Diagnostics,DisplayUnusedSchedules; to see them.
   *************
   ************* ===== Recurring Error Summary =====
   ************* The following recurring error messages occurred.
   *************
   *************  ** Warning ** "TOTAL HOT WATER LOAD" - Target water temperature should be less than or equal to the hot water temperature error continues...
   *************  **   ~~~   **   This error occurred 137615 total times;
   *************  **   ~~~   **   during Warmup 0 times;
   *************  **   ~~~   **   during Sizing 0 times.
   *************  **   ~~~   **   Max=11.46917  Min=7.233424E-004
   *************
   *************  ** Warning ** SimHVAC: Exceeding Maximum iterations for all HVAC loops, during ANNUAL continues
   *************  **   ~~~   **   This error occurred 3 total times;
   *************  **   ~~~   **   during Warmup 0 times;
   *************  **   ~~~   **   during Sizing 0 times.
   *************
   *************
   ************* ===== Final Error Summary =====
   ************* The following error categories occurred.  Consider correcting or noting.
   ************* Nominally Unused Constructions
   ************* ..The nominally unused constructions warning is provided to alert you to potential conditions that can cause
   ************* ..extra time during simulation. Each construction is calculated by the algorithm indicated in the HeatBalanceAlgorithm
   ************* ..object. You may remove the constructions indicated (when you use the DisplayExtraWarnings option).
   *************
   ************* EnergyPlus Warmup Error Summary. During Warmup: 1 Warning; 0 Severe Errors.
   ************* EnergyPlus Sizing Error Summary. During Sizing: 4 Warning; 0 Severe Errors.
   ************* EnergyPlus Completed Successfully-- 137649 Warning; 0 Severe Errors; Elapsed Time=00hr 01min 43.28sec
