Program Version,EnergyPlus, Version 22.2.0-c249759bad, YMD=2023.08.31 13:04,
   ************* Beginning Zone Sizing Calculations
   ** Warning ** ProcessScheduleInput: Schedule:Constant="ALWAYS ON DISCRETE", Schedule Type Limits Name="ONOFF" not found -- will not be validated
   ** Warning ** Foundation:Kiva="KIVA FOUNDATION", no Interior Horizontal Insulation Material Name defined
   **   ~~~   ** Interior Horizontal Insulation Depth will not be used.
   ** Warning ** CheckUsedConstructions: There are 15 nominally unused constructions in input.
   **   ~~~   ** Each Unused construction is shown.
   ************* Construction=INTERIOR FLOOR
   ************* Construction=INTERIOR WINDOW
   ************* Construction=EXTERIOR DOOR
   ************* Construction=INTERIOR DOOR
   ************* Construction=GABLE CONSTRUCTION
   ************* Construction=CRAWL_FLOOR
   ************* Construction=INSULATED PIPE
   ************* Construction=PLAIN PIPE
   ************* Construction=TDD PIPE
   ************* Construction=TDD DOME
   ************* Construction=TDD DIFFUSER
   ************* Construction=CRAWL WALL
   ************* Construction=CEILING-FLOOR-LAYER
   ************* Construction=SLAB CONSTRUCTION W FULL R10 INSULATION
   ************* Construction=SLAB CONSTRUCTION W FULL R5 INSULATION
   ** Warning ** GetDXCoils: Coil:Heating:DX:SingleSpeed="DX_HEATING_COIL" curve values
   **   ~~~   ** ... Defrost Energy Input Ratio Function of Temperature Curve Name = DEFROSTEIR output is not equal to 1.0 (+ or - 10%) at rated conditions.
   **   ~~~   ** ... Curve output at rated conditions = 0.152
   ************* Beginning System Sizing Calculations
   ************* Beginning Plant Sizing Calculations
   ** Warning ** Coil:WaterHeating:AirToWaterHeatPump:Wrapped "HEAT PUMP WATER HEATER EVAPORATOR": Rated air volume flow rate per watt of rated total water heating capacity is out of range
   **   ~~~   ** Min Rated Vol Flow Per Watt=[4.027E-005], Rated Vol Flow Per Watt=[1.386E-004], Max Rated Vol Flow Per Watt=[8.056E-005]. See Input-Output Reference Manual for valid range.
   ** Warning ** Water heater = WATER HEATER TANK:  Recovery Efficiency and Energy Factor could not be calculated during the test for standard ratings
   **   ~~~   ** Setpoint was never recovered and/or heater never turned on
   ** Warning ** Check input. Pump nominal power or motor efficiency is set to 0, for pump=MAINS PRESSURE
   ** Warning ** AirflowNetwork::Solver::validate_distribution: Heat pump water heater is simulated along with an AirflowNetwork but is not included in the AirflowNetwork.
   ** Warning ** Output:Meter: invalid Key Name="ELECTRIC_RANGE:INTERIOREQUIPMENT:ELECTRICITY" - not found.
   ** Warning ** Output:Meter: invalid Key Name="ELECTRIC_DRYER:INTERIOREQUIPMENT:ELECTRICITY" - not found.
   ** Warning ** Output:Meter: invalid Key Name="HEATRECOVERY:ELECTRICITY" - not found.
   ** Warning ** Output:Meter: invalid Key Name="HEATING:NATURALGAS" - not found.
   ** Warning ** Output:Meter: invalid Key Name="WATERSYSTEMS:NATURALGAS" - not found.
   ** Warning ** Output:Meter: invalid Key Name="PROPANE:FACILITY" - not found.
   ** Warning ** Output:Meter: invalid Key Name="HEATING:PROPANE" - not found.
   ************* Testing Individual Branch Integrity
   ************* All Branches passed integrity testing
   ************* Testing Individual Supply Air Path Integrity
   ************* All Supply Air Paths passed integrity testing
   ************* Testing Individual Return Air Path Integrity
   ************* All Return Air Paths passed integrity testing
   ************* No node connection errors were found.
   ************* Beginning Simulation
   ** Warning ** CalcEquipmentFlowRates: "TOTAL HOT WATER LOAD" - Target water temperature is greater than the hot water temperature by (1.75 C)
   **   ~~~   **  Environment=EXTREME_WINTER, at Simulation time=01/20 06:00 - 06:15
   **   ~~~   ** ...target water temperature     = 53.33 C
   **   ~~~   ** ...hot water temperature        = 51.58 C
   **   ~~~   ** ...Target water temperature should be less than or equal to the hot water temperature. Verify temperature setpoints and schedules.
   ** Warning ** SimHVAC: Maximum iterations (20) exceeded for all HVAC loops, at ANNUAL, 02/08 14:30 - 14:45
   **   ~~~   ** The solution for one or more of the Air Loop HVAC systems did not appear to converge
   **   ~~~   ** Air System Named = CENTRAL SYSTEM did not converge for mass flow rate
   **   ~~~   ** Check values should be zero. Most Recent values listed first.
   **   ~~~   ** Demand-to-Supply interface mass flow rate check value iteration history trace: 9.369891E-002,9.369891E-002,9.369891E-002,9.369891E-002,9.369891E-002,9.369891E-002,9.369891E-002,9.369891E-002,9.369891E-002,9.369891E-002,
   **   ~~~   ** Supply-to-demand interface deck 1 mass flow rate check value iteration history trace: 9.369891E-002,9.369891E-002,9.369891E-002,9.369891E-002,9.369891E-002,9.369891E-002,9.369891E-002,9.369891E-002,9.369891E-002,9.369891E-002,
   **   ~~~   ** Air System Named = CENTRAL SYSTEM did not converge for energy
   **   ~~~   ** Check values should be zero. Most Recent values listed first.
   **   ~~~   ** Demand-to-Supply interface energy check value iteration history trace: 1856.172173,1856.172171,1856.172168,1856.172166,1856.172163,1856.172161,1856.172159,1856.172156,1856.172154,1856.172151,
   **   ~~~   ** Supply-to-demand interface deck 1 energy check value iteration history trace: 2886.513160,2886.513156,2886.513153,2886.513149,2886.513145,2886.513141,2886.513138,2886.513134,2886.513130,2886.513127,
   ** Warning ** SimHVAC: Maximum iterations (20) exceeded for all HVAC loops, at ANNUAL, 02/24 15:45 - 16:00
   **   ~~~   ** The solution for one or more of the Air Loop HVAC systems did not appear to converge
   **   ~~~   ** Air System Named = CENTRAL SYSTEM did not converge for mass flow rate
   **   ~~~   ** Check values should be zero. Most Recent values listed first.
   **   ~~~   ** Demand-to-Supply interface mass flow rate check value iteration history trace: 9.613452E-002,9.613452E-002,9.613452E-002,9.613452E-002,9.613452E-002,9.613452E-002,9.613452E-002,9.613452E-002,9.613452E-002,9.613452E-002,
   **   ~~~   ** Supply-to-demand interface deck 1 mass flow rate check value iteration history trace: 9.613452E-002,9.613452E-002,9.613452E-002,9.613452E-002,9.613452E-002,9.613452E-002,9.613452E-002,9.613452E-002,9.613452E-002,9.613452E-002,
   **   ~~~   ** Air System Named = CENTRAL SYSTEM did not converge for energy
   **   ~~~   ** Check values should be zero. Most Recent values listed first.
   **   ~~~   ** Demand-to-Supply interface energy check value iteration history trace: 1903.026857,1903.026854,1903.026852,1903.026849,1903.026847,1903.026844,1903.026842,1903.026839,1903.026837,1903.026835,
   **   ~~~   ** Supply-to-demand interface deck 1 energy check value iteration history trace: 2934.831376,2934.831372,2934.831368,2934.831364,2934.831361,2934.831357,2934.831353,2934.831349,2934.831345,2934.831342,
   ** Warning ** SimHVAC: Maximum iterations (20) exceeded for all HVAC loops, at ANNUAL, 04/04 09:00 - 09:15
   **   ~~~   ** The solution for one or more of the Air Loop HVAC systems did not appear to converge
   **   ~~~   ** Air System Named = CENTRAL SYSTEM did not converge for mass flow rate
   **   ~~~   ** Check values should be zero. Most Recent values listed first.
   **   ~~~   ** Demand-to-Supply interface mass flow rate check value iteration history trace: 7.615011E-002,7.615011E-002,7.615011E-002,7.615011E-002,7.615011E-002,7.615011E-002,7.615011E-002,7.615011E-002,7.615011E-002,7.615011E-002,
   **   ~~~   ** Supply-to-demand interface deck 1 mass flow rate check value iteration history trace: 7.615011E-002,7.615011E-002,7.615011E-002,7.615011E-002,7.615011E-002,7.615011E-002,7.615011E-002,7.615011E-002,7.615011E-002,7.615011E-002,
   **   ~~~   ** Air System Named = CENTRAL SYSTEM did not converge for energy
   **   ~~~   ** Check values should be zero. Most Recent values listed first.
   **   ~~~   ** Demand-to-Supply interface energy check value iteration history trace: 1509.031803,1509.031801,1509.031800,1509.031798,1509.031797,1509.031795,1509.031794,1509.031792,1509.031790,1509.031789,
   **   ~~~   ** Supply-to-demand interface deck 1 energy check value iteration history trace: 2692.571164,2692.571161,2692.571159,2692.571156,2692.571153,2692.571150,2692.571147,2692.571144,2692.571142,2692.571139,
   ** Warning ** SimHVAC: Maximum iterations (20) exceeded for all HVAC loops, at ANNUAL, 04/04 09:04 - 09:08
   **   ~~~   ** The solution for one or more of the Air Loop HVAC systems did not appear to converge
   **   ~~~   ** Air System Named = CENTRAL SYSTEM did not converge for mass flow rate
   **   ~~~   ** Check values should be zero. Most Recent values listed first.
   **   ~~~   ** Demand-to-Supply interface mass flow rate check value iteration history trace: 7.661520E-002,7.661519E-002,7.661519E-002,7.661519E-002,7.661519E-002,7.661519E-002,7.661519E-002,7.661519E-002,7.661519E-002,7.661519E-002,
   **   ~~~   ** Supply-to-demand interface deck 1 mass flow rate check value iteration history trace: 7.661520E-002,7.661519E-002,7.661519E-002,7.661519E-002,7.661519E-002,7.661519E-002,7.661519E-002,7.661519E-002,7.661519E-002,7.661519E-002,
   **   ~~~   ** Air System Named = CENTRAL SYSTEM did not converge for energy
   **   ~~~   ** Check values should be zero. Most Recent values listed first.
   **   ~~~   ** Demand-to-Supply interface energy check value iteration history trace: 1518.310006,1518.310004,1518.310002,1518.310001,1518.309999,1518.309998,1518.309996,1518.309994,1518.309993,1518.309991,
   **   ~~~   ** Supply-to-demand interface deck 1 energy check value iteration history trace: 2709.048390,2709.048387,2709.048384,2709.048381,2709.048379,2709.048376,2709.048373,2709.048370,2709.048367,2709.048364,
   ** Warning ** SimHVAC: Maximum iterations (20) exceeded for all HVAC loops, at ANNUAL, 04/08 11:30 - 11:38
   **   ~~~   ** The solution for one or more of the Air Loop HVAC systems did not appear to converge
   **   ~~~   ** Air System Named = CENTRAL SYSTEM did not converge for mass flow rate
   **   ~~~   ** Check values should be zero. Most Recent values listed first.
   **   ~~~   ** Demand-to-Supply interface mass flow rate check value iteration history trace: 6.491261E-002,6.491261E-002,6.491261E-002,6.491261E-002,6.491261E-002,6.491261E-002,6.491261E-002,6.491261E-002,6.491261E-002,6.491261E-002,
   **   ~~~   ** Supply-to-demand interface deck 1 mass flow rate check value iteration history trace: 6.491261E-002,6.491261E-002,6.491261E-002,6.491261E-002,6.491261E-002,6.491261E-002,6.491261E-002,6.491261E-002,6.491261E-002,6.491261E-002,
   **   ~~~   ** Air System Named = CENTRAL SYSTEM did not converge for energy
   **   ~~~   ** Check values should be zero. Most Recent values listed first.
   **   ~~~   ** Demand-to-Supply interface energy check value iteration history trace: 1286.452217,1286.452216,1286.452215,1286.452214,1286.452213,1286.452212,1286.452211,1286.452210,1286.452210,1286.452209,
   **   ~~~   ** Supply-to-demand interface deck 1 energy check value iteration history trace: 2281.673605,2281.673604,2281.673602,2281.673600,2281.673599,2281.673597,2281.673595,2281.673594,2281.673592,2281.673590,
   ** Warning ** SimHVAC: Maximum iterations (20) exceeded for all HVAC loops, at ANNUAL, 04/29 10:00 - 10:04
   **   ~~~   ** The solution for one or more of the Air Loop HVAC systems did not appear to converge
   **   ~~~   ** Air System Named = CENTRAL SYSTEM did not converge for mass flow rate
   **   ~~~   ** Check values should be zero. Most Recent values listed first.
   **   ~~~   ** Demand-to-Supply interface mass flow rate check value iteration history trace: 8.028595E-002,8.028595E-002,8.028595E-002,8.028595E-002,8.028595E-002,8.028595E-002,8.028595E-002,8.028595E-002,8.028595E-002,8.028595E-002,
   **   ~~~   ** Supply-to-demand interface deck 1 mass flow rate check value iteration history trace: 8.028595E-002,8.028595E-002,8.028595E-002,8.028595E-002,8.028595E-002,8.028595E-002,8.028595E-002,8.028595E-002,8.028595E-002,8.028595E-002,
   **   ~~~   ** Air System Named = CENTRAL SYSTEM did not converge for energy
   **   ~~~   ** Check values should be zero. Most Recent values listed first.
   **   ~~~   ** Demand-to-Supply interface energy check value iteration history trace: 1590.973141,1590.973140,1590.973138,1590.973136,1590.973135,1590.973133,1590.973132,1590.973130,1590.973129,1590.973127,
   **   ~~~   ** Supply-to-demand interface deck 1 energy check value iteration history trace: 2750.998979,2750.998976,2750.998973,2750.998971,2750.998968,2750.998965,2750.998963,2750.998960,2750.998957,2750.998954,
   ** Warning ** SimHVAC: Maximum iterations (20) exceeded for all HVAC loops, at ANNUAL, 05/06 19:45 - 19:52
   **   ~~~   ** The solution for one or more of the Air Loop HVAC systems did not appear to converge
   **   ~~~   ** Air System Named = CENTRAL SYSTEM did not converge for mass flow rate
   **   ~~~   ** Check values should be zero. Most Recent values listed first.
   **   ~~~   ** Demand-to-Supply interface mass flow rate check value iteration history trace: 8.047443E-002,8.047443E-002,8.047443E-002,8.047443E-002,8.047442E-002,8.047442E-002,8.047442E-002,8.047442E-002,8.047442E-002,8.047442E-002,
   **   ~~~   ** Supply-to-demand interface deck 1 mass flow rate check value iteration history trace: 8.047443E-002,8.047443E-002,8.047443E-002,8.047443E-002,8.047442E-002,8.047442E-002,8.047442E-002,8.047442E-002,8.047442E-002,8.047442E-002,
   **   ~~~   ** Air System Named = CENTRAL SYSTEM did not converge for energy
   **   ~~~   ** Check values should be zero. Most Recent values listed first.
   **   ~~~   ** Demand-to-Supply interface energy check value iteration history trace: 1590.834209,1590.834207,1590.834205,1590.834203,1590.834202,1590.834200,1590.834198,1590.834196,1590.834194,1590.834193,
   **   ~~~   ** Supply-to-demand interface deck 1 energy check value iteration history trace: 2751.620685,2751.620682,2751.620679,2751.620676,2751.620673,2751.620670,2751.620667,2751.620664,2751.620660,2751.620657,
   ** Warning ** SimHVAC: Maximum iterations (20) exceeded for all HVAC loops, at ANNUAL, 05/10 07:30 - 07:45
   **   ~~~   ** The solution for one or more of the Air Loop HVAC systems did not appear to converge
   **   ~~~   ** Air System Named = CENTRAL SYSTEM did not converge for mass flow rate
   **   ~~~   ** Check values should be zero. Most Recent values listed first.
   **   ~~~   ** Demand-to-Supply interface mass flow rate check value iteration history trace: 7.870486E-002,7.870486E-002,7.870486E-002,7.870486E-002,7.870486E-002,7.870486E-002,7.870486E-002,7.870486E-002,7.870486E-002,7.870486E-002,
   **   ~~~   ** Supply-to-demand interface deck 1 mass flow rate check value iteration history trace: 7.870486E-002,7.870486E-002,7.870486E-002,7.870486E-002,7.870486E-002,7.870486E-002,7.870486E-002,7.870486E-002,7.870486E-002,7.870486E-002,
   **   ~~~   ** Air System Named = CENTRAL SYSTEM did not converge for energy
   **   ~~~   ** Check values should be zero. Most Recent values listed first.
   **   ~~~   ** Demand-to-Supply interface energy check value iteration history trace: 1559.652328,1559.652327,1559.652326,1559.652325,1559.652324,1559.652324,1559.652323,1559.652322,1559.652321,1559.652320,
   **   ~~~   ** Supply-to-demand interface deck 1 energy check value iteration history trace: 2765.578154,2765.578153,2765.578151,2765.578149,2765.578148,2765.578146,2765.578144,2765.578143,2765.578141,2765.578139,
   ** Warning ** SimHVAC: Maximum iterations (20) exceeded for all HVAC loops, at ANNUAL, 05/20 10:57 - 11:00
   **   ~~~   ** The solution for one or more of the Air Loop HVAC systems did not appear to converge
   **   ~~~   ** Air System Named = CENTRAL SYSTEM did not converge for mass flow rate
   **   ~~~   ** Check values should be zero. Most Recent values listed first.
   **   ~~~   ** Demand-to-Supply interface mass flow rate check value iteration history trace: 6.135045E-002,6.135045E-002,6.135045E-002,6.135045E-002,6.135045E-002,6.135045E-002,6.135045E-002,6.135045E-002,6.135045E-002,6.135045E-002,
   **   ~~~   ** Supply-to-demand interface deck 1 mass flow rate check value iteration history trace: 6.135045E-002,6.135045E-002,6.135045E-002,6.135045E-002,6.135045E-002,6.135045E-002,6.135045E-002,6.135045E-002,6.135045E-002,6.135045E-002,
   **   ~~~   ** Air System Named = CENTRAL SYSTEM did not converge for energy
   **   ~~~   ** Check values should be zero. Most Recent values listed first.
   **   ~~~   ** Demand-to-Supply interface energy check value iteration history trace: 1212.542193,1212.542193,1212.542192,1212.542191,1212.542191,1212.542190,1212.542190,1212.542189,1212.542189,1212.542188,
   **   ~~~   ** Supply-to-demand interface deck 1 energy check value iteration history trace: 2217.429991,2217.429990,2217.429989,2217.429988,2217.429987,2217.429985,2217.429984,2217.429983,2217.429982,2217.429981,
   ** Warning ** SimHVAC: Maximum iterations (20) exceeded for all HVAC loops, at ANNUAL, 05/20 11:18 - 11:21
   **   ~~~   ** The solution for one or more of the Air Loop HVAC systems did not appear to converge
   **   ~~~   ** Air System Named = CENTRAL SYSTEM did not converge for mass flow rate
   **   ~~~   ** Check values should be zero. Most Recent values listed first.
   **   ~~~   ** Demand-to-Supply interface mass flow rate check value iteration history trace: 5.652979E-002,5.652979E-002,5.652979E-002,5.652979E-002,5.652979E-002,5.652979E-002,5.652979E-002,5.652979E-002,5.652979E-002,5.652979E-002,
   **   ~~~   ** Supply-to-demand interface deck 1 mass flow rate check value iteration history trace: 5.652979E-002,5.652979E-002,5.652979E-002,5.652979E-002,5.652979E-002,5.652979E-002,5.652979E-002,5.652979E-002,5.652979E-002,5.652979E-002,
   **   ~~~   ** Air System Named = CENTRAL SYSTEM did not converge for energy
   **   ~~~   ** Check values should be zero. Most Recent values listed first.
   **   ~~~   ** Demand-to-Supply interface energy check value iteration history trace: 1112.036938,1112.036938,1112.036937,1112.036937,1112.036936,1112.036935,1112.036935,1112.036934,1112.036934,1112.036933,
   **   ~~~   ** Supply-to-demand interface deck 1 energy check value iteration history trace: 2075.028954,2075.028953,2075.028952,2075.028951,2075.028950,2075.028948,2075.028947,2075.028946,2075.028945,2075.028944,
   ** Warning ** SimHVAC: Maximum iterations (20) exceeded for all HVAC loops, at ANNUAL, 05/22 07:45 - 08:00
   **   ~~~   ** The solution for one or more of the Air Loop HVAC systems did not appear to converge
   **   ~~~   ** Air System Named = CENTRAL SYSTEM did not converge for mass flow rate
   **   ~~~   ** Check values should be zero. Most Recent values listed first.
   **   ~~~   ** Demand-to-Supply interface mass flow rate check value iteration history trace: 6.628709E-002,6.628709E-002,6.628709E-002,6.628709E-002,6.628709E-002,6.628709E-002,6.628709E-002,6.628709E-002,6.628709E-002,6.628709E-002,
   **   ~~~   ** Supply-to-demand interface deck 1 mass flow rate check value iteration history trace: 6.628709E-002,6.628709E-002,6.628709E-002,6.628709E-002,6.628709E-002,6.628709E-002,6.628709E-002,6.628709E-002,6.628709E-002,6.628709E-002,
   **   ~~~   ** Air System Named = CENTRAL SYSTEM did not converge for energy
   **   ~~~   ** Check values should be zero. Most Recent values listed first.
   **   ~~~   ** Demand-to-Supply interface energy check value iteration history trace: 1296.624368,1296.624367,1296.624366,1296.624364,1296.624363,1296.624362,1296.624360,1296.624359,1296.624358,1296.624357,
   **   ~~~   ** Supply-to-demand interface deck 1 energy check value iteration history trace: 2354.217618,2354.217615,2354.217613,2354.217611,2354.217608,2354.217606,2354.217604,2354.217601,2354.217599,2354.217597,
   ** Warning ** SimHVAC: Maximum iterations (20) exceeded for all HVAC loops, at ANNUAL, 06/16 06:45 - 07:00
   **   ~~~   ** The solution for one or more of the Air Loop HVAC systems did not appear to converge
   **   ~~~   ** Air System Named = CENTRAL SYSTEM did not converge for mass flow rate
   **   ~~~   ** Check values should be zero. Most Recent values listed first.
   **   ~~~   ** Demand-to-Supply interface mass flow rate check value iteration history trace: 6.016892E-002,6.016892E-002,6.016892E-002,6.016892E-002,6.016892E-002,6.016892E-002,6.016892E-002,6.016892E-002,6.016892E-002,6.016892E-002,
   **   ~~~   ** Supply-to-demand interface deck 1 mass flow rate check value iteration history trace: 6.016892E-002,6.016892E-002,6.016892E-002,6.016892E-002,6.016892E-002,6.016892E-002,6.016892E-002,6.016892E-002,6.016892E-002,6.016892E-002,
   **   ~~~   ** Air System Named = CENTRAL SYSTEM did not converge for energy
   **   ~~~   ** Check values should be zero. Most Recent values listed first.
   **   ~~~   ** Demand-to-Supply interface energy check value iteration history trace: 1190.748942,1190.748941,1190.748940,1190.748939,1190.748938,1190.748937,1190.748937,1190.748936,1190.748935,1190.748934,
   **   ~~~   ** Supply-to-demand interface deck 1 energy check value iteration history trace: 2162.384205,2162.384203,2162.384202,2162.384200,2162.384199,2162.384197,2162.384195,2162.384194,2162.384192,2162.384191,
   ** Warning ** SimHVAC: Maximum iterations (20) exceeded for all HVAC loops, at ANNUAL, 07/05 06:30 - 06:45
   **   ~~~   ** The solution for one or more of the Air Loop HVAC systems did not appear to converge
   **   ~~~   ** Air System Named = CENTRAL SYSTEM did not converge for mass flow rate
   **   ~~~   ** Check values should be zero. Most Recent values listed first.
   **   ~~~   ** Demand-to-Supply interface mass flow rate check value iteration history trace: 9.476777E-002,9.476777E-002,9.476777E-002,9.476777E-002,9.476777E-002,9.476777E-002,9.476777E-002,9.476777E-002,9.476777E-002,9.476777E-002,
   **   ~~~   ** Supply-to-demand interface deck 1 mass flow rate check value iteration history trace: 9.476777E-002,9.476777E-002,9.476777E-002,9.476777E-002,9.476777E-002,9.476777E-002,9.476777E-002,9.476777E-002,9.476777E-002,9.476777E-002,
   **   ~~~   ** Air System Named = CENTRAL SYSTEM did not converge for energy
   **   ~~~   ** Check values should be zero. Most Recent values listed first.
   **   ~~~   ** Demand-to-Supply interface energy check value iteration history trace: 2213.530072,2213.530076,2213.530080,2213.530084,2213.530087,2213.530091,2213.530095,2213.530099,2213.530103,2213.530107,
   **   ~~~   ** Supply-to-demand interface deck 1 energy check value iteration history trace: 1184.232085,1184.232087,1184.232089,1184.232091,1184.232093,1184.232095,1184.232097,1184.232099,1184.232101,1184.232103,
   ** Warning ** SimHVAC: Maximum iterations (20) exceeded for all HVAC loops, at ANNUAL, 08/20 09:00 - 09:15
   **   ~~~   ** The solution for one or more of the Air Loop HVAC systems did not appear to converge
   **   ~~~   ** Air System Named = CENTRAL SYSTEM did not converge for mass flow rate
   **   ~~~   ** Check values should be zero. Most Recent values listed first.
   **   ~~~   ** Demand-to-Supply interface mass flow rate check value iteration history trace: 6.349479E-002,6.349479E-002,6.349479E-002,6.349479E-002,6.349479E-002,6.349479E-002,6.349479E-002,6.349479E-002,6.349479E-002,6.349479E-002,
   **   ~~~   ** Supply-to-demand interface deck 1 mass flow rate check value iteration history trace: 6.349479E-002,6.349479E-002,6.349479E-002,6.349479E-002,6.349479E-002,6.349479E-002,6.349479E-002,6.349479E-002,6.349479E-002,6.349479E-002,
   **   ~~~   ** Air System Named = CENTRAL SYSTEM did not converge for energy
   **   ~~~   ** Check values should be zero. Most Recent values listed first.
   **   ~~~   ** Demand-to-Supply interface energy check value iteration history trace: 1256.590268,1256.590266,1256.590264,1256.590263,1256.590261,1256.590259,1256.590257,1256.590256,1256.590254,1256.590252,
   **   ~~~   ** Supply-to-demand interface deck 1 energy check value iteration history trace: 2292.104065,2292.104062,2292.104058,2292.104055,2292.104052,2292.104049,2292.104046,2292.104042,2292.104039,2292.104036,
   ************* Simulation Error Summary *************
   ** Warning ** The following Report Variables were requested but not generated -- check.rdd file
   **   ~~~   ** Either the IDF did not contain these elements, the variable name is misspelled,
   **   ~~~   ** or the requested variable is an advanced output which requires Output : Diagnostics, DisplayAdvancedReportVariables;
   ************* Key=*, VarName=BASEBOARD TOTAL HEATING ENERGY, Frequency=
   ************* Key=*, VarName=WATER HEATER NATURALGAS ENERGY, Frequency=
   ************* Key=*, VarName=COOLING COIL TOTAL HEATING ENERGY, Frequency=
   ************* There are 34 unused schedules in input.
   ************* There are 388 unused week schedules in input.
   ************* There are 396 unused day schedules in input.
   ************* Use Output:Diagnostics,DisplayUnusedSchedules; to see them.
   *************
   ************* ===== Recurring Error Summary =====
   ************* The following recurring error messages occurred.
   *************
   *************  ** Warning ** "TOTAL HOT WATER LOAD" - Target water temperature should be less than or equal to the hot water temperature error continues...
   *************  **   ~~~   **   This error occurred 80357 total times;
   *************  **   ~~~   **   during Warmup 0 times;
   *************  **   ~~~   **   during Sizing 0 times.
   *************  **   ~~~   **   Max=12.285426  Min=2.683868E-004
   *************
   *************  ** Warning ** SimHVAC: Exceeding Maximum iterations for all HVAC loops, during ANNUAL continues
   *************  **   ~~~   **   This error occurred 7 total times;
   *************  **   ~~~   **   during Warmup 0 times;
   *************  **   ~~~   **   during Sizing 0 times.
   *************
   *************
   ************* ===== Final Error Summary =====
   ************* The following error categories occurred.  Consider correcting or noting.
   ************* Nominally Unused Constructions
   ************* ..The nominally unused constructions warning is provided to alert you to potential conditions that can cause
   ************* ..extra time during simulation. Each construction is calculated by the algorithm indicated in the HeatBalanceAlgorithm
   ************* ..object. You may remove the constructions indicated (when you use the DisplayExtraWarnings option).
   *************
   ************* EnergyPlus Warmup Error Summary. During Warmup: 0 Warning; 0 Severe Errors.
   ************* EnergyPlus Sizing Error Summary. During Sizing: 4 Warning; 0 Severe Errors.
   ************* EnergyPlus Completed Successfully-- 80395 Warning; 0 Severe Errors; Elapsed Time=00hr 05min  3.32sec
